# generated using pymatgen
data_Zn4H19C28SNO18
_symmetry_space_group_name_H-M   'P 1'
_cell_length_a   12.07001000
_cell_length_b   11.77637000
_cell_length_c   24.89059000
_cell_angle_alpha   102.37394000
_cell_angle_beta   101.52469000
_cell_angle_gamma   95.42709000
_symmetry_Int_Tables_number   1
_chemical_formula_structural   Zn4H19C28SNO18
_chemical_formula_sum   'Zn8 H38 C56 S2 N2 O36'
_cell_volume   3351.03855288
_cell_formula_units_Z   2
loop_
 _symmetry_equiv_pos_site_id
 _symmetry_equiv_pos_as_xyz
  1  'x, y, z'
loop_
 _atom_site_type_symbol
 _atom_site_label
 _atom_site_symmetry_multiplicity
 _atom_site_fract_x
 _atom_site_fract_y
 _atom_site_fract_z
 _atom_site_occupancy
  Zn  Zn0  1  0.83510830  0.38011122  0.86990500  1
  Zn  Zn1  1  0.67283450  0.13559207  0.84260520  1
  Zn  Zn2  1  0.93731020  0.15397110  0.89768560  1
  Zn  Zn3  1  0.85727010  0.17043751  0.76995220  1
  Zn  Zn4  1  0.85645366  0.13441959  0.27404252  1
  Zn  Zn5  1  0.91729546  0.15885219  0.40698440  1
  Zn  Zn6  1  0.66124386  0.15953287  0.34343900  1
  Zn  Zn7  1  0.85093004  0.37802476  0.35789430  1
  H  H8  1  0.20024265  0.02840935  0.83945790  1
  H  H9  1  0.28945127  0.25488153  0.75150580  1
  H  H10  1  0.28599450  0.36765010  0.91471180  1
  H  H11  1  0.36770648  0.04533005  0.77440274  1
  H  H12  1  0.45294714  0.38756236  0.84911430  1
  H  H13  1  0.36394516  0.16093340  0.93698317  1
  H  H14  1  0.20126106  0.02961235  0.34592006  1
  H  H15  1  0.44342990  0.38444385  0.34178403  1
  H  H16  1  0.37844732  0.16317359  0.43738538  1
  H  H17  1  0.27373600  0.25096664  0.25159878  1
  H  H18  1  0.29601324  0.37293085  0.41622084  1
  H  H19  1  0.35269585  0.04200102  0.27176613  1
  H  H20  1  0.63734050  0.66206790  0.79060180  1
  H  H21  1  0.72400194  0.67870520  0.74168770  1
  H  H22  1  0.82005160  0.52934885  0.76648160  1
  H  H23  1  0.72450040  0.50959380  0.81074170  1
  H  H24  1  0.67513540  0.76346020  0.88803560  1
  H  H25  1  0.77072980  0.61825450  0.91385096  1
  H  H26  1  0.90170080  0.80367880  0.77629876  1
  H  H27  1  0.02800334  0.76594300  0.88645460  1
  H  H28  1  0.79866534  0.86741910  0.91941840  1
  H  H29  1  0.89840050  0.72139925  0.94331660  1
  H  H30  1  0.70773300  0.01229441  0.05856599  1
  H  H31  1  0.93597300  0.40304285  0.12762645  1
  H  H32  1  0.65566903  0.20227154  0.13583308  1
  H  H33  1  0.98803970  0.21306767  0.05036387  1
  H  H34  1  0.70356650  0.35400873  0.06685634  1
  H  H35  1  0.94014510  0.06133230  0.11934506  1
  H  H36  1  0.92563117  0.36198300  0.56381845  1
  H  H37  1  0.71832657  0.05347779  0.62592167  1
  H  H38  1  0.02584708  0.18831602  0.61340770  1
  H  H39  1  0.61816780  0.22715898  0.57635194  1
  H  H40  1  0.84776570  0.01506529  0.54123810  1
  H  H41  1  0.79658660  0.40053332  0.64829606  1
  H  H42  1  0.72281920  0.84763265  0.32957536  1
  H  H43  1  0.65270776  0.59929580  0.30329138  1
  H  H44  1  0.99307543  0.75695330  0.48745358  1
  H  H45  1  0.04627585  0.59559030  0.25729942  1
  C  C46  1  0.55207556  0.17878722  0.87657020  1
  C  C47  1  0.10174887  0.23941727  0.81243770  1
  C  C48  1  0.34568638  0.18222894  0.89503440  1
  C  C49  1  0.30780086  0.23335643  0.79341180  1
  C  C50  1  0.25864450  0.10890308  0.84176254  1
  C  C51  1  0.39473307  0.30686656  0.84671720  1
  C  C52  1  0.22062102  0.22344340  0.82988715  1
  C  C53  1  0.43290603  0.19264793  0.85873030  1
  C  C54  1  0.30569220  0.29672012  0.88283480  1
  C  C55  1  0.34796274  0.11867950  0.80564480  1
  C  C56  1  0.54984810  0.17372823  0.36613700  1
  C  C57  1  0.09855843  0.24022700  0.32226890  1
  C  C58  1  0.35233570  0.18317117  0.39544633  1
  C  C59  1  0.29603142  0.23008274  0.29333472  1
  C  C60  1  0.30960676  0.29742330  0.38409954  1
  C  C61  1  0.33861620  0.11596887  0.30454764  1
  C  C62  1  0.25819492  0.10884403  0.34528056  1
  C  C63  1  0.38978168  0.30432713  0.34338720  1
  C  C64  1  0.21759428  0.22271995  0.33411127  1
  C  C65  1  0.43063542  0.19069394  0.35452660  1
  C  C66  1  0.94718720  0.52560633  0.87374850  1
  C  C67  1  0.70825930  0.89359560  0.81068250  1
  C  C68  1  0.72470796  0.67665600  0.78626070  1
  C  C69  1  0.78728175  0.57560180  0.80252480  1
  C  C70  1  0.76663910  0.78390340  0.88718510  1
  C  C71  1  0.90251800  0.81474507  0.82201830  1
  C  C72  1  0.77529347  0.79650440  0.82691777  1
  C  C73  1  0.88573890  0.62349784  0.85592026  1
  C  C74  1  0.83117520  0.68414930  0.90403306  1
  C  C75  1  0.96991400  0.72154266  0.84490420  1
  C  C76  1  0.89458656  0.25606248  0.20875894  1
  C  C77  1  0.74912214  0.15927672  0.97743803  1
  C  C78  1  0.73020780  0.20443188  0.11599883  1
  C  C79  1  0.91351426  0.21090847  0.07019746  1
  C  C80  1  0.75760790  0.28848535  0.07901375  1
  C  C81  1  0.88611430  0.12687023  0.10718297  1
  C  C82  1  0.75981885  0.10036301  0.07444197  1
  C  C83  1  0.88388990  0.31497610  0.11175496  1
  C  C84  1  0.78782010  0.18483141  0.03845445  1
  C  C85  1  0.85588855  0.23050775  0.14774248  1
  C  C86  1  0.90577084  0.22536120  0.70790190  1
  C  C87  1  0.80783180  0.31359014  0.62376560  1
  C  C88  1  0.73848580  0.18982968  0.48169577  1
  C  C89  1  0.93354800  0.19673120  0.60421410  1
  C  C90  1  0.71044147  0.21863389  0.58545480  1
  C  C91  1  0.87960370  0.29267728  0.57855654  1
  C  C92  1  0.76436776  0.12264989  0.61111460  1
  C  C93  1  0.78293765  0.19790049  0.54125184  1
  C  C94  1  0.86105900  0.21740906  0.64840645  1
  C  C95  1  0.83618370  0.10174849  0.56590760  1
  C  C96  1  0.80203160  0.50544417  0.25377160  1
  C  C97  1  0.83488923  0.91039723  0.43374097  1
  C  C98  1  0.81198573  0.62847470  0.28125367  1
  C  C99  1  0.79743580  0.78979180  0.40163770  1
  C  C100  1  0.72877750  0.66079706  0.30740404  1
  C  C101  1  0.74327490  0.77335113  0.34726750  1
  S  S102  1  0.82892850  0.67346890  0.43421608  1
  S  S103  1  0.94186130  0.72117330  0.28990504  1
  N  N104  1  0.95891270  0.93281070  0.85073790  1
  N  N105  1  0.04176164  0.67360560  0.80682820  1
  O  O106  1  0.61493190  0.25599363  0.91947705  1
  O  O107  1  0.03900936  0.16287841  0.76944970  1
  O  O108  1  0.58906720  0.09006546  0.84883780  1
  O  O109  1  0.06487401  0.32880652  0.84008884  1
  O  O110  1  0.58141480  0.09093899  0.33285785  1
  O  O111  1  0.61916570  0.24174644  0.40923712  1
  O  O112  1  0.02924750  0.17223045  0.27915952  1
  O  O113  1  0.06699832  0.32303790  0.35553880  1
  O  O114  1  0.89107210  0.41876950  0.86002990  1
  O  O115  1  0.60025823  0.86460480  0.78423744  1
  O  O116  1  0.05218744  0.55568147  0.90312700  1
  O  O117  1  0.76138710  0.00152433  0.82732400  1
  O  O118  1  0.98420300  0.00475013  0.82044154  1
  O  O119  1  0.96210710  0.97294310  0.90409774  1
  O  O120  1  0.99855775  0.62846200  0.75337220  1
  O  O121  1  0.15195775  0.68594325  0.82547265  1
  O  O122  1  0.82041730  0.25867182  0.23893622  1
  O  O123  1  0.82329154  0.15668250  0.94726110  1
  O  O124  1  0.64193390  0.14012855  0.95580290  1
  O  O125  1  0.00177479  0.27522576  0.23039444  1
  O  O126  1  0.94269820  0.13394652  0.72197780  1
  O  O127  1  0.70180170  0.28128472  0.46759453  1
  O  O128  1  0.90682910  0.32316970  0.74359670  1
  O  O129  1  0.73767084  0.09206154  0.44597566  1
  O  O130  1  0.88028670  0.58311540  0.39823380  1
  O  O131  1  0.92153984  0.72727025  0.49686003  1
  O  O132  1  0.91687880  0.83955960  0.28153110  1
  O  O133  1  0.01288998  0.73684996  0.34861746  1
  O  O134  1  0.01578486  0.66147900  0.24312183  1
  O  O135  1  0.77345370  0.43059042  0.28056034  1
  O  O136  1  0.86773030  0.98503340  0.40771186  1
  O  O137  1  0.81410295  0.47299954  0.20300214  1
  O  O138  1  0.82708114  0.94262420  0.48527005  1
  O  O139  1  0.71975080  0.61558420  0.44294370  1
  O  O140  1  0.82563674  0.21001887  0.84503525  1
  O  O141  1  0.82147410  0.20771480  0.34559260  1
