# generated using pymatgen
data_CuH6C15NO10
_symmetry_space_group_name_H-M   'P 1'
_cell_length_a   7.68164000
_cell_length_b   9.09222000
_cell_length_c   18.29678000
_cell_angle_alpha   92.67198000
_cell_angle_beta   90.50841000
_cell_angle_gamma   94.63037000
_symmetry_Int_Tables_number   1
_chemical_formula_structural   CuH6C15NO10
_chemical_formula_sum   'Cu2 H12 C30 N2 O20'
_cell_volume   1272.24686457
_cell_formula_units_Z   2
loop_
 _symmetry_equiv_pos_site_id
 _symmetry_equiv_pos_as_xyz
  1  'x, y, z'
loop_
 _atom_site_type_symbol
 _atom_site_label
 _atom_site_symmetry_multiplicity
 _atom_site_fract_x
 _atom_site_fract_y
 _atom_site_fract_z
 _atom_site_occupancy
  Cu  Cu0  1  0.70755450  0.90194760  0.63494706  1
  Cu  Cu1  1  0.36384702  0.85487914  0.64774567  1
  H  H2  1  0.88604313  0.28577042  0.92662610  1
  H  H3  1  0.25151205  0.71601176  0.36844810  1
  H  H4  1  0.98753890  0.77895844  0.00825679  1
  H  H5  1  0.07395077  0.97971170  0.26847968  1
  H  H6  1  0.59745560  0.19582582  0.08772832  1
  H  H7  1  0.45819628  0.56568990  0.19343136  1
  H  H8  1  0.59422654  0.32665193  0.30608687  1
  H  H9  1  0.46015254  0.43756926  0.97683966  1
  H  H10  1  0.73852180  0.65867525  0.00520869  1
  H  H11  1  0.32095367  0.10481632  0.27342147  1
  H  H12  1  0.17102826  0.47430468  0.35285400  1
  H  H13  1  0.80872450  0.04403913  0.90917620  1
  C  C14  1  0.74777230  0.70531195  0.22589330  1
  C  C15  1  0.37827280  0.19521928  0.03099459  1
  C  C16  1  0.67783606  0.56652707  0.24984263  1
  C  C17  1  0.85553830  0.02745867  0.96396770  1
  C  C18  1  0.20374632  0.73115810  0.31363204  1
  C  C19  1  0.07171241  0.84454530  0.04741637  1
  C  C20  1  0.98788035  0.91404150  0.23005827  1
  C  C21  1  0.75730930  0.68267930  0.06347192  1
  C  C22  1  0.29744628  0.07551002  0.21585265  1
  C  C23  1  0.77955820  0.48541602  0.29554173  1
  C  C24  1  0.10600469  0.22368490  0.96516420  1
  C  C25  1  0.95107180  0.53730017  0.31477022  1
  C  C26  1  0.64561963  0.78712740  0.10366560  1
  C  C27  1  0.41096620  0.97257320  0.17579277  1
  C  C28  1  0.55382574  0.87658787  0.98429560  1
  C  C29  1  0.53938180  0.87542480  0.06366393  1
  C  C30  1  0.51819840  0.88526964  0.21584246  1
  C  C31  1  0.41983402  0.96483590  0.09872945  1
  C  C32  1  0.63730747  0.79543660  0.18077722  1
  C  C33  1  0.50393635  0.88465640  0.29521080  1
  C  C34  1  0.03585736  0.08359647  0.98716766  1
  C  C35  1  0.02230775  0.67614170  0.29155532  1
  C  C36  1  0.13905345  0.99780380  0.03062271  1
  C  C37  1  0.27652532  0.27669966  0.98547065  1
  C  C38  1  0.91917735  0.76177293  0.24797934  1
  C  C39  1  0.30936712  0.05520845  0.05377340  1
  C  C40  1  0.51188020  0.60003805  0.64468350  1
  C  C41  1  0.56222120  0.16324349  0.63579667  1
  C  C42  1  0.52886266  0.44635320  0.64155140  1
  C  C43  1  0.54526913  0.31693253  0.63892895  1
  N  N44  1  0.95736810  0.88367486  0.63970720  1
  N  N45  1  0.11182791  0.87797740  0.63991416  1
  O  O46  1  0.75573206  0.96592120  0.00658712  1
  O  O47  1  0.36056580  0.84080780  0.32428882  1
  O  O48  1  0.42243248  0.83247095  0.94465834  1
  O  O49  1  0.63535770  0.92881860  0.33484970  1
  O  O50  1  0.01239932  0.31498635  0.92411155  1
  O  O51  1  0.04453981  0.44621400  0.35599920  1
  O  O52  1  0.30326498  0.79008290  0.27006160  1
  O  O53  1  0.10602505  0.79064870  0.10514343  1
  O  O54  1  0.69722430  0.92048180  0.95521915  1
  O  O55  1  0.95266880  0.96691203  0.17217202  1
  O  O56  1  0.54389644  0.25586010  0.05135376  1
  O  O57  1  0.51124233  0.50678760  0.23043786  1
  O  O58  1  0.71740746  0.35074314  0.32147798  1
  O  O59  1  0.33762208  0.41263604  0.96069765  1
  O  O60  1  0.87133270  0.62147635  0.09403650  1
  O  O61  1  0.17607980  0.12859333  0.18600915  1
  O  O62  1  0.36011603  0.64834493  0.64461535  1
  O  O63  1  0.71398540  0.11493655  0.63586480  1
  O  O64  1  0.42430338  0.07546823  0.63294660  1
  O  O65  1  0.64979804  0.68781330  0.64753354  1
