# generated using pymatgen
data_ZnH5C17Br3(NO2)5
_symmetry_space_group_name_H-M   'P 1'
_cell_length_a   9.12319000
_cell_length_b   9.84936000
_cell_length_c   22.93349000
_cell_angle_alpha   90.05832000
_cell_angle_beta   87.76293000
_cell_angle_gamma   89.40878000
_symmetry_Int_Tables_number   1
_chemical_formula_structural   ZnH5C17Br3(NO2)5
_chemical_formula_sum   'Zn2 H10 C34 Br6 N10 O20'
_cell_volume   2059.06570962
_cell_formula_units_Z   2
loop_
 _symmetry_equiv_pos_site_id
 _symmetry_equiv_pos_as_xyz
  1  'x, y, z'
loop_
 _atom_site_type_symbol
 _atom_site_label
 _atom_site_symmetry_multiplicity
 _atom_site_fract_x
 _atom_site_fract_y
 _atom_site_fract_z
 _atom_site_occupancy
  Zn  Zn0  1  0.38131756  0.17231432  0.03268252  1
  Zn  Zn1  1  0.71605664  0.18065923  0.02772129  1
  H  H2  1  0.48013803  0.51096880  0.59176123  1
  H  H3  1  0.47070482  0.83262170  0.48005520  1
  H  H4  1  0.42512860  0.72873086  0.10991313  1
  H  H5  1  0.32856870  0.55513746  0.16464877  1
  H  H6  1  0.42569163  0.43209620  0.12143521  1
  H  H7  1  0.27479154  0.52685404  0.09125413  1
  H  H8  1  0.75899106  0.75535060  0.97468990  1
  H  H9  1  0.66333324  0.71775830  0.87744653  1
  H  H10  1  0.58835584  0.86313650  0.91462630  1
  H  H11  1  0.48778906  0.70338950  0.91270600  1
  C  C12  1  0.27143776  0.17562518  0.02510425  1
  C  C13  1  0.83174574  0.17298698  0.03835830  1
  C  C14  1  0.11687211  0.17469802  0.02976000  1
  C  C15  1  0.98631130  0.17391413  0.03370253  1
  C  C16  1  0.68471110  0.18363590  0.92662210  1
  C  C17  1  0.41031113  0.16345908  0.13507628  1
  C  C18  1  0.44359374  0.05632941  0.41413337  1
  C  C19  1  0.51805395  0.28755210  0.65693540  1
  C  C20  1  0.48817070  0.29429670  0.41238457  1
  C  C21  1  0.58174130  0.05251768  0.65106790  1
  C  C22  1  0.48305896  0.29859343  0.47396162  1
  C  C23  1  0.53546630  0.04681851  0.59310630  1
  C  C24  1  0.48779547  0.17374854  0.50404800  1
  C  C25  1  0.50896830  0.17107774  0.56454676  1
  C  C26  1  0.47243616  0.05136711  0.47361030  1
  C  C27  1  0.50466690  0.29293010  0.59636384  1
  C  C28  1  0.47856580  0.42151780  0.50641114  1
  C  C29  1  0.51958530  0.92334580  0.56208620  1
  C  C30  1  0.48638390  0.41677916  0.56729600  1
  C  C31  1  0.48526900  0.92737144  0.50306046  1
  C  C32  1  0.52975243  0.07751255  0.78302640  1
  C  C33  1  0.35148030  0.26406595  0.29364190  1
  C  C34  1  0.56791970  0.07477886  0.84194565  1
  C  C35  1  0.34754533  0.26760215  0.23232004  1
  C  C36  1  0.65759534  0.17756605  0.86385860  1
  C  C37  1  0.42656220  0.16933534  0.19860278  1
  C  C38  1  0.70917180  0.28071013  0.82640580  1
  C  C39  1  0.50974400  0.06997655  0.22664346  1
  C  C40  1  0.69497370  0.26806745  0.76613986  1
  C  C41  1  0.53606000  0.08306352  0.28603944  1
  C  C42  1  0.59804510  0.17130059  0.74415684  1
  C  C43  1  0.45066565  0.17490388  0.32079315  1
  C  C44  1  0.37000018  0.53148603  0.11956886  1
  C  C45  1  0.59617630  0.75098985  0.91612900  1
  Br  Br46  1  0.48865658  0.93563026  0.89320374  1
  Br  Br47  1  0.22569890  0.40118020  0.19513938  1
  Br  Br48  1  0.76380460  0.45388272  0.85736570  1
  Br  Br49  1  0.55524920  0.89942104  0.18874046  1
  Br  Br50  1  0.81439793  0.38003996  0.71463615  1
  Br  Br51  1  0.69395200  0.97875214  0.31812972  1
  N  N52  1  0.46137070  0.17521863  0.38364520  1
  N  N53  1  0.56569590  0.17044290  0.68282366  1
  N  N54  1  0.45431614  0.55076580  0.47937608  1
  N  N55  1  0.52583920  0.79361343  0.59038390  1
  N  N56  1  0.41818088  0.98878520  0.76299980  1
  N  N57  1  0.25157830  0.34708244  0.32849480  1
  N  N58  1  0.52686820  0.62219800  0.04341219  1
  N  N59  1  0.57323450  0.73042110  0.01765800  1
  N  N60  1  0.46874237  0.63670310  0.09970854  1
  N  N61  1  0.66165190  0.70786697  0.96927030  1
  O  O62  1  0.34114063  0.06166604  0.02143413  1
  O  O63  1  0.76204290  0.28694612  0.04202839  1
  O  O64  1  0.76591720  0.05821797  0.03872919  1
  O  O65  1  0.33726630  0.29039420  0.02473333  1
  O  O66  1  0.81784270  0.18788822  0.94508666  1
  O  O67  1  0.27900434  0.15921628  0.11648340  1
  O  O68  1  0.52464336  0.16582660  0.09924956  1
  O  O69  1  0.57220370  0.18127790  0.96232057  1
  O  O70  1  0.40002560  0.94301000  0.38686220  1
  O  O71  1  0.48557740  0.39878553  0.68954164  1
  O  O72  1  0.52363480  0.40642290  0.38148645  1
  O  O73  1  0.64588700  0.94311150  0.67497770  1
  O  O74  1  0.34210753  0.56813390  0.44675663  1
  O  O75  1  0.52519360  0.65670130  0.49642414  1
  O  O76  1  0.44281550  0.77091277  0.63671046  1
  O  O77  1  0.59057580  0.69136670  0.56380080  1
  O  O78  1  0.30866995  0.03813711  0.73481710  1
  O  O79  1  0.43034760  0.85795280  0.76935510  1
  O  O80  1  0.17076485  0.29262850  0.37003046  1
  O  O81  1  0.24776141  0.47813886  0.32151213  1
