data_I
_chemical_name_common  '/home/sibivarshan_m7/MOFDiff/MOFDiff/results/nh3_target_22.0mmol/cif/sample_1'
_cell_length_a 21.15784
_cell_length_b 21.27466
_cell_length_c 22.15216
_cell_angle_alpha 111.25375
_cell_angle_beta  110.09553
_cell_angle_gamma 102.26020
_space_group_name_H-M_alt      'P 1'


loop_
_space_group_symop_operation_xyz
  'x, y, z' 

loop_
_atom_site_label
_atom_site_fract_x
_atom_site_fract_y
_atom_site_fract_z
_atom_site_type_symbol
Zn0   0.069969125 0.02687633 0.19764474    Zn
Zn1   0.9337024 0.8755135 0.11219376    Zn
Zn2   0.09309328 0.883491 0.19723797    Zn
Zn3   0.048882764 0.8991267 0.052189417    Zn
O4    0.036413964 0.92124623 0.13981347     O
Zn5   0.03553075   0.3546 0.5473123    Zn
Zn6   0.080010206 0.3930053 0.7130168    Zn
Zn7   0.9371195 0.40793502 0.6195687    Zn
Zn8   0.09383741 0.51981956 0.668289    Zn
O9    0.03662265 0.4188458 0.6370499     O
H10   0.29123133 0.10241762 0.27766743     H
H11   0.35048768 0.16446853 0.26286662     H
H12   0.31511724 0.19816127 0.3225904     H
H13   0.5595846 0.37374437 0.4287446     H
H14   0.47505835 0.36887613 0.36707857     H
H15   0.53563166 0.34248313 0.33246353     H
H16   0.4806082 0.93983495 0.23282444     H
H17   0.48952132 0.9949707 0.31919476     H
H18   0.56798774 0.9801292 0.3087585     H
H19   0.7302582 0.14401647 0.4876654     H
H20   0.69786936 0.09270053 0.38925257     H
H21   0.57106644 0.25326416 0.35312074     H
H22   0.6963299 0.045987412 0.4422396     H
H23   0.3942093 0.99645597 0.21429393     H
H24   0.32374972 0.032951377 0.20848222     H
H25   0.3145808 0.952829 0.21645753     H
H26   0.5006827 0.085876524 0.53189915     H
H27   0.5775018 0.078459166 0.5143418     H
H28   0.49863404 0.00017906234 0.47725162     H
H29   0.53527015 0.27858293 0.47683072     H
H30   0.6187188 0.29462895 0.4740972     H
H31   0.5886091 0.15291367 0.31431416     H
H32   0.6547839 0.19048446 0.4273128     H
C33   0.35885265 0.07416529 0.10694079     C
C34   0.43657207 0.120183244 0.35120952     C
C35   0.5275835 0.23412544 0.36733374     C
C36   0.56433743 0.25277036 0.44839644     C
C37   0.6601267 0.23439538 0.59810674     C
C38   0.48881888 0.14894535 0.31963277     C
C39   0.48930973 0.13218811 0.43083894     C
C40   0.56899005 0.18430872 0.45757395     C
C41   0.6032226 0.1458699 0.41022146     C
C42   0.5524351 0.120100275 0.32769114     C
C43   0.61717373 0.21065919 0.53533864     C
C44   0.4504132 0.13304782 0.24380697     C
C45   0.41252002 0.112292305 0.18066661     C
C46   0.71831965 0.2658541 0.6699383     C
C47   0.33623978 0.15550327 0.30315855     C
C48   0.5144967 0.3417034 0.3718427     C
C49   0.5178173 0.98977107 0.2856035     C
C50   0.6889816 0.09386211 0.43625942     C
C51   0.35503763 0.0070230635 0.23498693     C
C52   0.51742417 0.058543067 0.49063012     C
Cl53  0.4591605 0.17591605 0.49637902    Cl
O54   0.72520375 0.325273 0.71946645     O
O55   0.29767856 0.08137126 0.091899976     O
O56   0.36586276 0.019325456 0.06611573     O
O57   0.39640698 0.16575332 0.36445403     O
O58   0.47788545 0.26918688 0.35499415     O
O59   0.53303325 0.048765264 0.27100173     O
O60   0.6176896 0.08904948 0.42407486     O
O61   0.38820267 0.04432189 0.312025     O
O62   0.4854774 0.061817467 0.4246866     O
O63   0.76935697 0.24269171 0.6765628     O
H64   0.14079376 0.29449746 0.6505712     H
H65   0.10516594 0.12608244 0.3398301     H
H66   0.10410846 0.1404051 0.49733907     H
H67   0.22587958 0.21665055 0.5354677     H
H68   0.21600252 0.23908335 0.61741585     H
H69   0.2072081 0.2965598 0.572978     H
H70   0.17309096 0.12549925 0.26273236     H
H71   0.20468453 0.048342492 0.30373335     H
H72   0.1857994 0.9986283 0.21025306     H
H73   0.11692565 0.9748225 0.2373599     H
H74   0.825397 0.004695227 0.07902956     H
H75    0.84038 0.03311778 0.98984724     H
H76   0.9371207 0.057358563 0.036071338     H
H77   0.89593065 0.115131505 0.07645964     H
H78   0.895208 0.24210854 0.39901766     H
H79   0.80123794 0.20552456 0.37851182     H
H80   0.8402431 0.14513716 0.34113076     H
H81   0.9257528 0.36622864 0.55862653     H
H82   0.86404943 0.3610531 0.59703326     H
H83   0.8357655 0.29212674 0.5067592     H
H84   0.84793687 0.059957284 0.24603273     H
H85   0.7953626 0.13317019 0.20473008     H
H86   0.85549015 0.14391088 0.16511393     H
H87   0.89186716 0.1863413 0.2635387     H
C88   0.999108 0.969443 0.08984797     C
C89   0.0019102978 0.029028932 0.15446109     C
C90   0.9362706 0.039435092 0.15028282     C
C91   0.9293959 0.070689954 0.21471485     C
C92   0.98963493 0.09806455 0.28297246     C
C93   0.057465952 0.09989874 0.286972     C
C94   0.064372644 0.06610137 0.22347905     C
C95   0.06710071 0.2225456 0.53755724     C
C96   0.08590533 0.2742366 0.6082502     C
C97   0.9622021 0.26908234 0.57114327     C
C98   0.9417803 0.21615086 0.49916333     C
C99   0.9958932 0.19639298 0.48203894     C
C100  0.9840835 0.15631759 0.40802166     C
C101  0.984026 0.12834156 0.34988803     C
C102  0.035788186 0.3020904 0.62459797     C
C103  0.06493636 0.37025458 0.6949338     C
C104  0.196083 0.23982958 0.56441456     C
C105  0.16160996 0.020843122 0.24623469     C
C106  0.88827384 0.05771687 0.044289615     C
C107  0.8518394 0.19446494 0.39013398     C
C108  0.8833627 0.32769668 0.56146944     C
C109  0.85071707 0.13749382 0.2109636     C
N110  0.11885273 0.1962807 0.520217     N
N111  0.13486342 0.0726817 0.22957487     N
N112  0.8762289 0.015960442 0.08124676     N
N113  0.8609918 0.07230676 0.20997027     N
O114  0.052980326 0.9491522 0.09458648     O
O115  0.936759 0.9305726 0.034114055     O
O116  0.027851239 0.41012353 0.7062966     O
O117  0.13213757 0.39368638 0.7382624     O
O118  0.868264 0.17964415 0.44968307     O
O119  0.9100864 0.28486666 0.5913026     O
H120  0.12860084 0.098978534 0.05900383     H
H121  0.0483666 0.12166918 0.046833873     H
H122  0.13372381 0.18423682 0.11915827     H
H123  0.007787898 0.32389593 0.03570783     H
H124  0.009229922 0.297327 0.10413873     H
H125  0.92930734 0.25045553 0.017244816     H
H126  0.96945214 0.9375461 0.7355811     H
H127  0.04287458 0.023022005 0.7859484     H
H128  0.9721318 0.9951903 0.69488925     H
H129  0.99546826 0.18264966 0.696501     H
H130  0.9266858 0.09616291 0.67014295     H
H131  0.9469002 0.19900812 0.9155553     H
H132  0.99847263 0.09714072 0.64436346     H
H133  0.0037557036 0.9767799 0.86221963     H
H134  0.04450135 0.007940107 0.95953447     H
H135  0.08165112 0.96177924 0.9067601     H
H136  0.24413404 0.20590228 0.8852009     H
H137  0.16493547 0.17897052 0.8003416     H
H138  0.20810366 0.11812797 0.80966514     H
H139  0.10520555 0.2938697 0.9932654     H
H140  0.030835781 0.28996003 0.92307216     H
H141  0.91637444 0.108010165 0.81197727     H
H142  0.97761893 0.18895456 0.7967717     H
C143  0.8937148 0.96964014 0.93905675     C
C144  0.08790608 0.1316524 0.94287825     C
C145  0.0025492336 0.20154855 0.9459349     C
C146  0.057287317 0.2558372 0.9390465     C
C147  0.14975666 0.31738454 0.85707533     C
C148  0.0035752624 0.123820275 0.9083055     C
C149  0.12994376 0.17832057 0.9147104     C
C150  0.08158143 0.21587612 0.8820547     C
C151  0.011997068 0.15767406 0.8093441     C
C152  0.9688047 0.10002053 0.82419306     C
C153  0.121472865 0.27149963 0.86937237     C
C154  0.9552092 0.07466108 0.9199411     C
C155  0.9216628 0.029727085 0.9295302     C
C156  0.17372565 0.37131402 0.83747333     C
C157  0.10651976 0.14173482 0.06110847     C
C158  0.98985374 0.27637622 0.044615984     C
C159  0.98450094 0.9955149 0.7478346     C
C160  0.9852609 0.1259694 0.6883384     C
C161  0.05528188 0.0018540457 0.91297305     C
C162  0.19241038 0.16120309 0.83962524     C
Cl163 0.21486977 0.25006118 0.9908578    Cl
O164  0.20711692 0.43819222 0.8865594     O
O165  0.92450666 0.97483885 0.002408266     O
O166  0.8575187 0.90874946 0.88144684     O
O167  0.12286322 0.17532225 0.020904183     O
O168  0.019778937 0.22475213 0.020443201     O
O169  0.9407292 0.023066197 0.7767576     O
O170  0.030487694 0.12655899 0.7527033     O
O171  0.10359156 0.06648838 0.9236288     O
O172  0.14469723 0.12938224 0.8618126     O
O173  0.14601114 0.35230047 0.77000487     O
H174  0.088885196 0.51763994 0.48162988     H
H175  0.11357522 0.6136742 0.541676     H
H176  0.17904882 0.58300745 0.5248903     H
H177  0.23379433 0.82211703 0.54027224     H
H178  0.26543468 0.79718065 0.6109713     H
H179  0.19765146 0.8360704 0.60589904     H
H180  0.80986077 0.5408992 0.33095276     H
H181  0.87641215 0.541262 0.30023944     H
H182  0.81455845 0.58739275 0.27970758     H
H183  0.9191489 0.72204685 0.23304358     H
H184  0.86751705 0.7159397 0.28350973     H
H185  0.09273693 0.778071 0.49507573     H
H186  0.83238536 0.64853776 0.19018601     H
H187  0.91209096 0.5385207 0.4196407     H
H188  0.9876691 0.52377117 0.47413468     H
H189  0.9149253 0.45055085 0.3930291     H
H190  0.001936778 0.499924 0.18453023     H
H191  0.94700783 0.5547841 0.17800654     H
H192  0.9073029 0.46232474 0.1553067     H
H193  0.16266915 0.7045294 0.4105883     H
H194  0.13013743 0.7737727 0.4109341     H
H195  0.9753997 0.7330359 0.43313664     H
H196  0.99683076 0.74250597 0.3490359     H
C197  0.9885523 0.63640547 0.6007475     C
C198  0.037448086 0.5861679 0.39933634     C
C199  0.101489305 0.72635657 0.47276288     C
C200  0.11476947 0.71956843 0.40682536     C
C201  0.07081797 0.68417346 0.22945587     C
C202  0.02981883 0.6609825 0.44515505     C
C203  0.034672268 0.5855575 0.3251579     C
C204  0.045902804 0.66392636 0.33271664     C
C205  0.97879195 0.6831602 0.3336837     C
C206  0.96620935 0.6759274 0.39719373     C
C207  0.05962462 0.6725771 0.2747564     C
C208  0.021241397 0.6658779 0.5091242     C
C209  0.010029161 0.6601666 0.55653214     C
C210  0.0827019 0.7067771 0.17978561     C
C211  0.12074577 0.57454884 0.49846846     C
C212  0.21672845 0.7993095 0.572695     C
C213  0.8484171 0.5748186 0.32089958     C
C214  0.88298106 0.68449503 0.24245107     C
C215  0.94913775  0.50924 0.4183752     C
C216  0.9570931 0.51285696 0.19390891     C
Cl217 0.10825215 0.56291425 0.3113048    Cl
O218  0.14745773 0.7299022 0.18801887     O
O219  0.027901249 0.61008286 0.6343342     O
O220  0.9220677 0.6211425 0.5857979     O
O221  0.10836936 0.58780384 0.43825307     O
O222  0.16243966 0.7278843 0.5277004     O
O223  0.89540684 0.63924277 0.38702986     O
O224  0.91676486 0.640476 0.26413482     O
O225  0.9822171 0.5169371 0.37453923     O
O226  0.9657813 0.5314498 0.26536226     O
O227  0.031680387 0.7186607 0.14113872     O
H228  0.9146986 0.42963487 0.6927295     H
H229  0.97657645 0.75140625 0.88919884     H
H230  0.9017182 0.5679455 0.8244008     H
H231  0.852635 0.58417565 0.71900964     H
H232  0.8327065 0.4878314 0.6850109     H
H233  0.9103926 0.54726195 0.68670374     H
H234  0.968738 0.8685544 0.8831059     H
H235  0.86019695 0.8184447 0.8775396     H
H236  0.8856023 0.91224474 0.94062364     H
H237  0.90206224 0.84921193 0.9748593     H
H238  0.22888122 0.9280655 0.17902648     H
H239  0.29027438 0.044180274 0.195423     H
H240  0.21300532 0.031677723 0.11821926     H
H241  0.26782566 0.9785959 0.10439086     H
H242  0.19261026 0.6212338 0.9369832     H
H243  0.24358617 0.60225004 0.007157564     H
H244  0.18659146 0.65046245 0.02189517     H
H245  0.18229057 0.46756423 0.81652856     H
H246  0.2023065 0.39738914 0.8361712     H
H247  0.21729167 0.48026136 0.90966606     H
H248  0.1645529 0.75003266 0.08390188     H
H249  0.2855305 0.7916319 0.10202789     H
H250  0.271857 0.86363393 0.081745744     H
H251  0.22491457 0.76947236 0.010066867     H
C252  0.066261865 0.9763535 0.09545529     C
C253  0.07670384 0.91213185 0.04849279     C
C254  0.13583995 0.89346105 0.08111942     C
C255  0.13055167 0.82053584 0.04918337     C
C256  0.0705255 0.7684577 0.98170877     C
C257  0.019794531 0.790419 0.9437386     C
C258  0.022478273 0.8617869 0.97618186     C
C259  0.97330123 0.52112573 0.79995865     C
C260  0.96217984 0.4545143 0.7449647     C
C261  0.069745265 0.44927523 0.826268     C
C262  0.081766166 0.51654977 0.8830401     C
C263  0.035346806 0.5541508 0.8679139     C
C264  0.052568473 0.62951225 0.9164521     C
C265  0.062135797 0.69291854 0.9484926     C
C266  0.012646094 0.4208545 0.755465     C
C267  0.0074502653 0.36168072 0.6894217     C
C268  0.87735367 0.5427051 0.715581     C
C269  0.9015094 0.8644842 0.9318744     C
C270  0.24475142 0.0030868053 0.14072454     C
C271  0.19088252 0.60618746 0.97984135     C
C272  0.18073155 0.4407348 0.85120744     C
C273  0.24477708 0.8065681 0.06892061     C
N274  0.92346746 0.5568796 0.78842354     N
N275  0.9724724 0.8831741 0.93435407     N
N276  0.199313 0.9472435 0.14743233     N
N277  0.18491505 0.7998585 0.08654189     N
O278  0.0074775885 0.98799396 0.07226086     O
O279  0.1115882 0.010756731 0.16323936     O
O280  0.060810074 0.34114552 0.69077766     O
O281  0.9529046 0.34097245 0.6291994     O
O282  0.13377649 0.5396756 0.953499     O
O283  0.1097904 0.40814865 0.8405581     O
H284  0.7703376 0.81690073 0.061275005     H
H285  0.7157697 0.7466555 0.071605444     H
H286  0.7283449 0.8378271 0.11874008     H
H287  0.48171464 0.69200134 0.048237085     H
H288  0.5640052 0.7234263 0.12989509     H
H289  0.5247462 0.6291901 0.06223309     H
H290  0.64645374 0.57402396 0.76116586     H
H291  0.61435974 0.6447796 0.7842494     H
H292  0.5540077 0.55437434 0.70640016     H
H293  0.36229697 0.55662245 0.67791736     H
H294  0.41551554 0.4994061 0.6810921     H
H295  0.5041642 0.60620123 0.9451197     H
H296  0.41296637 0.5453945 0.62698865     H
H297  0.7131168 0.6491917 0.8910076     H
H298  0.7670212 0.71820307 0.9858052     H
H299  0.78431153 0.73010457 0.91789705     H
H300  0.55053157 0.82751185 0.8089033     H
H301  0.4918843 0.7328885 0.74095523     H
H302  0.5750658 0.7761743 0.74442774     H
H303  0.5056957 0.7541786 0.96996707     H
H304  0.43536988 0.66727877 0.9145527     H
H305  0.51155084 0.5480562 0.8468142     H
H306  0.42963487 0.5828774 0.7988895     H
C307  0.7523014 0.5944217 0.017680883     C
C308    0.6339 0.7345358 0.9371057     C
C309  0.53981847 0.66223013 0.9610791     C
C310  0.49103817 0.69770384 0.9281424     C
C311  0.38546768 0.731651 0.79495883     C
C312  0.59309506 0.65466166 0.9266267     C
C313  0.5732008 0.7520032 0.88481665     C
C314  0.49508306 0.6971956 0.85896575     C
C315  0.48168224 0.6179088 0.8055366     C
C316  0.5432934 0.5950845 0.8441635     C
C317  0.43646696 0.7184833 0.82419676     C
C318  0.64181554 0.62568706 0.9622749     C
C319  0.68830764 0.6071813 0.99005127     C
C320  0.31906816 0.7377172 0.7577847     C
C321  0.7208287 0.7965197 0.066036105     C
C322  0.5344894 0.68575674 0.07026589     C
C323  0.5984374 0.58568716 0.7632774     C
C324  0.41341773 0.5503285 0.67873716     C
C325  0.7397559 0.708259 0.9291679     C
C326  0.54874367 0.77215964 0.77913564     C
Cl327 0.57892287 0.84357154 0.93540883    Cl
O328  0.2952786 0.7780613 0.79513544     O
O329  0.80452555 0.64406365 0.07976067     O
O330  0.76231223 0.5478538 0.9707243     O
O331  0.65787405 0.7899966 0.010101795     O
O332  0.5781422 0.70411676 0.03845465     O
O333  0.5804642 0.56050724 0.80812985     O
O334  0.47509572 0.6121759 0.7376646     O
O335  0.69208115 0.7448923 0.9174061     O
O336  0.5875035 0.74644846 0.8246612     O
O337  0.2790855 0.6900607 0.69157064     O
loop_
_geom_bond_atom_site_label_1
_geom_bond_atom_site_label_2
_geom_bond_distance
_geom_bond_site_symmetry_2
_ccdc_geom_bond_type
Zn0   O4     1.95078   1_545     S
Zn0   O55    6.11513       .     S
Zn0   O115   3.22720   1_445     S
Zn0   O165   3.91630   1_445     S
Zn1   O4     1.94945   1_655     S
Zn1   O227   4.40679   1_655     S
Zn1   O278   3.13728   1_655     S
Zn1   O329   4.75418       .     S
Zn2   O4     1.95015       .     S
Zn2   O56    7.78567   1_565     S
Zn2   O114   3.05333       .     S
Zn2   O218   3.64904       .     S
Zn3   O4     1.94965       .     S
Zn3   O166   4.59685   1_454     S
Zn3   O279   2.37389   1_565     S
Zn3   O330   7.70244   1_454     S
O4    Zn0    1.95078   1_565     D
O4    Zn1    1.94945   1_455     S
O4    Zn2    1.95015       .     S
O4    Zn3    1.94965       .     T
Zn5   O9     1.95078       .     S
Zn5   O63    7.47727   1_455     S
Zn5   O117   3.68085       .     S
Zn5   O173   4.70124       .     S
Zn6   O9     1.94944       .     S
Zn6   O280   0.95029       .     S
Zn6   O328   7.66929       .     S
Zn6   O337   7.08185       .     S
Zn7   O9     1.95015   1_655     S
Zn7   O54    5.86380       .     S
Zn7   O164   6.36310   1_655     S
Zn7   O281   1.60000       .     S
Zn8   O9     1.94965       .     S
Zn8   O116   2.99215       .     S
Zn8   O219   2.76830       .     S
Zn8   O220   4.77632   1_455     S
O9    Zn5    1.95078       .     S
O9    Zn6    1.94944       .     S
O9    Zn7    1.95015   1_455     S
O9    Zn8    1.94965       .     S
H10   C47    1.10116       .     S
H11   C47    1.09900       .     S
H12   C47    1.10899       .     S
H13   C48    1.11272       .     S
H14   C48    1.10914       .     S
H15   C48    1.11202       .     S
H16   C49    1.10777       .     S
H17   C49    1.09497       .     S
H18   C49    1.10750       .     S
H19   C50    1.11261       .     S
H20   C50    1.11273       .     S
H21   C35    1.11545       .     S
H22   C50    1.10906       .     S
H23   C51    1.10138   1_565     S
H24   C51    1.10002       .     S
H25   C51    1.10762   1_565     S
H26   C52    1.10633       .     S
H27   C52    1.10556       .     S
H28   C52    1.10916       .     S
H29   C36    1.11148       .     S
H30   C36    1.09002       .     S
H31   C42    1.11348       .     S
H32   C41    1.11814       .     S
C33   C45    1.41019       .     S
C33   O55    1.27856       .     S
C33   O56    1.26561       .     S
C34   C38    1.62483       .     S
C34   C39    1.61915       .     T
C34   O57    1.43638       .     S
C34   O61    1.44152       .     D
C35   H21    1.11545       .     S
C35   C36    1.54261       .     D
C35   C38    1.56786       .     S
C35   O58    1.42134       .     S
C36   H29    1.11148       .     T
C36   H30    1.09002       .     S
C36   C35    1.54261       .     S
C36   C40    1.56020       .     S
C37   C43    1.20082       .     S
C37   C46    1.42391       .     S
C38   C34    1.62483       .     S
C38   C35    1.56786       .     S
C38   C42    1.57646       .     S
C38   C44    1.45931       .     S
C39   C34    1.61915       .     S
C39   C40    1.57044       .     S
C39   Cl53   1.81369       .     S
C39   O62    1.43507       .     S
C40   C36    1.56020       .     S
C40   C39    1.57044       .     S
C40   C41    1.56377       .     S
C40   C43    1.47358       .     S
C41   H32    1.11814       .     S
C41   C40    1.56377       .     S
C41   C42    1.57188       .     S
C41   O60    1.41799       .     S
C42   H31    1.11348       .     S
C42   C38    1.57646       .     S
C42   C41    1.57188       .     S
C42   O59    1.43115       .     S
C43   C37    1.20082       .     S
C43   C40    1.47358       .     S
C44   C38    1.45931       .     S
C44   C45    1.19390       .     S
C45   C33    1.41019       .     S
C45   C44    1.19390       .     S
C46   C37    1.42391       .     S
C46   O54    1.27649       .     S
C46   O63    1.26488       .     S
C47   H10    1.10116       .     S
C47   H11    1.09900       .     S
C47   H12    1.10899       .     S
C47   O57    1.41118       .     S
C48   H13    1.11272       .     S
C48   H14    1.10914       .     S
C48   H15    1.11202       .     S
C48   O58    1.41272       .     S
C49   H16    1.10777       .     S
C49   H17    1.09497       .     S
C49   H18    1.10750       .     S
C49   O59    1.40634   1_565     S
C50   H19    1.11261       .     S
C50   H20    1.11273       .     T
C50   H22    1.10906       .     S
C50   O60    1.41179       .     D
C51   H23    1.10138   1_545     S
C51   H24    1.10002       .     D
C51   H25    1.10762   1_545     S
C51   O61    1.41183       .     S
C52   H26    1.10633       .     S
C52   H27    1.10556       .     S
C52   H28    1.10916       .     S
C52   O62    1.41806       .     S
Cl53  C39    1.81369       .     S
O54   Zn7    5.86380       .     A
O54   C46    1.27649       .     A
O55   Zn0    6.11513       .     A
O55   C33    1.27856       .     S
O56   Zn2    7.78567   1_545     A
O56   C33    1.26561       .     S
O57   C34    1.43638       .     A
O57   C47    1.41118       .     S
O58   C35    1.42134       .     S
O58   C48    1.41272       .     A
O59   C42    1.43115       .     S
O59   C49    1.40634   1_545     S
O60   C41    1.41799       .     S
O60   C50    1.41179       .     S
O61   C34    1.44152       .     S
O61   C51    1.41183       .     S
O62   C39    1.43507       .     S
O62   C52    1.41806       .     S
O63   Zn5    7.47727   1_655     S
O63   C46    1.26488       .     T
H64   C96    1.07687       .     S
H65   C93    1.08453       .     S
H66   N110   1.03167       .     S
H67   C104   1.11012       .     S
H68   C104   1.11027       .     S
H69   C104   1.10937       .     A
H70   N111   1.03137       .     A
H71   C105   1.10943       .     S
H72   C105   1.10931   1_565     S
H73   C105   1.10935   1_565     S
H74   N112   1.03065       .     A
H75   C106   1.11022   1_556     A
H76   C106   1.11038       .     S
H77   C106   1.10979       .     S
H78   C107   1.11552       .     A
H79   C107   1.10876       .     S
H80   C107   1.10526       .     S
H81   C108   1.11550       .     A
H82   C108   1.10918       .     S
H83   C108   1.10832       .     S
H84   N113   1.02785       .     S
H85   C109   1.11045       .     S
H86   C109   1.10706       .     S
H87   C109   1.11169       .     S
C88   C89    1.50116   1_665     S
C88   O114   1.28692   1_655     S
C88   O115   1.27502       .     S
C89   C88    1.50116   1_445     D
C89   C90    1.42949   1_455     S
C89   C94    1.41448       .     D
C90   C89    1.42949   1_655     S
C90   C91    1.41286       .     S
C90   N112   1.42961       .     S
C91   C90    1.41286       .     S
C91   C92    1.40426       .     S
C91   N113   1.42341       .     S
C92   C91    1.40426       .     S
C92   C93    1.39835   1_655     A
C92   C101   1.44478       .     A
C93   H65    1.08453       .     A
C93   C92    1.39835   1_455     S
C93   C94    1.40331       .     A
C94   C89    1.41448       .     S
C94   C93    1.40331       .     A
C94   N111   1.42177       .     S
C95   C96    1.39910       .     S
C95   C99    1.40235   1_455     A
C95   N110   1.43247       .     S
C96   H64    1.07687       .     S
C96   C95    1.39910       .     S
C96   C102   1.40778       .     S
C97   C98    1.41964       .     S
C97   C102   1.40899   1_655     S
C97   O119   1.38382       .     S
C98   C97    1.41964       .     S
C98   C99    1.42079       .     S
C98   O118   1.38644       .     T
C99   C95    1.40235   1_655     S
C99   C98    1.42079       .     S
C99   C100   1.44646       .     S
C100  C99    1.44646       .     S
C100  C101   1.20647       .     S
C101  C92    1.44478       .     A
C101  C100   1.20647       .     A
C102  C96    1.40778       .     S
C102  C97    1.40899   1_455     S
C102  C103   1.49423       .     S
C103  C102   1.49423       .     A
C103  O116   1.28920       .     A
C103  O117   1.26715       .     S
C104  H67    1.11012       .     S
C104  H68    1.11027       .     A
C104  H69    1.10937       .     S
C104  N110   1.44466       .     S
C105  H71    1.10943       .     A
C105  H72    1.10931   1_545     S
C105  H73    1.10935   1_545     S
C105  N111   1.44545       .     S
C106  H75    1.11022   1_554     S
C106  H76    1.11038       .     S
C106  H77    1.10979       .     S
C106  N112   1.44874       .     S
C107  H78    1.11552       .     S
C107  H79    1.10876       .     S
C107  H80    1.10526       .     D
C107  O118   1.41188       .     S
C108  H81    1.11550       .     D
C108  H82    1.10918       .     S
C108  H83    1.10832       .     S
C108  O119   1.40902       .     T
C109  H85    1.11045       .     S
C109  H86    1.10706       .     S
C109  H87    1.11169       .     S
C109  N113   1.44231       .     S
N110  H66    1.03167       .     S
N110  C95    1.43247       .     S
N110  C104   1.44466       .     S
N111  H70    1.03137       .     S
N111  C94    1.42177       .     S
N111  C105   1.44545       .     S
N112  H74    1.03065       .     S
N112  C90    1.42961       .     S
N112  C106   1.44874       .     S
N113  H84    1.02785       .     S
N113  C91    1.42341       .     S
N113  C109   1.44231       .     S
O114  Zn2    3.05333       .     S
O114  C88    1.28692   1_455     S
O115  Zn0    3.22720   1_665     S
O115  C88    1.27502       .     S
O116  Zn8    2.99215       .     S
O116  C103   1.28920       .     S
O117  Zn5    3.68085       .     S
O117  C103   1.26715       .     S
O118  C98    1.38644       .     S
O118  C107   1.41188       .     S
O119  C97    1.38382       .     S
O119  C108   1.40902       .     S
H120  C157   1.10116       .     S
H121  C157   1.09900       .     S
H122  C157   1.10899       .     S
H123  C158   1.11272   1_455     S
H124  C158   1.10914   1_455     S
H125  C158   1.11202       .     S
H126  C159   1.10777       .     S
H127  C159   1.09497   1_445     S
H128  C159   1.10750       .     S
H129  C160   1.11261       .     S
H130  C160   1.11273       .     S
H131  C145   1.11545   1_655     S
H132  C160   1.10906       .     S
H133  C161   1.10138   1_565     S
H134  C161   1.10002       .     S
H135  C161   1.10761   1_565     S
H136  C162   1.10633       .     S
H137  C162   1.10556       .     S
H138  C162   1.10916       .     S
H139  C146   1.11149       .     T
H140  C146   1.09002       .     S
H141  C152   1.11348       .     D
H142  C151   1.11814   1_655     S
C143  C155   1.41018   1_565     D
C143  O165   1.27856   1_556     S
C143  O166   1.26561       .     S
C144  C148   1.62483       .     T
C144  C149   1.61915       .     S
C144  O167   1.43637   1_556     S
C144  O171   1.44152       .     S
C145  H131   1.11545   1_455     S
C145  C146   1.54261       .     S
C145  C148   1.56786       .     S
C145  O168   1.42134   1_556     S
C146  H139   1.11149       .     S
C146  H140   1.09002       .     S
C146  C145   1.54261       .     S
C146  C150   1.56020       .     S
C147  C153   1.20082       .     S
C147  C156   1.42391       .     S
C148  C144   1.62483       .     S
C148  C145   1.56786       .     S
C148  C152   1.57646   1_455     S
C148  C154   1.45931   1_455     S
C149  C144   1.61915       .     S
C149  C150   1.57044       .     S
C149  Cl163  1.81369       .     S
C149  O172   1.43507       .     S
C150  C146   1.56020       .     S
C150  C149   1.57044       .     S
C150  C151   1.56377       .     S
C150  C153   1.47358       .     S
C151  H142   1.11814   1_455     S
C151  C150   1.56377       .     S
C151  C152   1.57188   1_455     S
C151  O170   1.41799       .     S
C152  H141   1.11348       .     S
C152  C148   1.57646   1_655     S
C152  C151   1.57188   1_655     S
C152  O169   1.43115       .     S
C153  C147   1.20082       .     S
C153  C150   1.47358       .     S
C154  C148   1.45931   1_655     S
C154  C155   1.19390       .     S
C155  C143   1.41019   1_545     S
C155  C154   1.19390       .     S
C156  C147   1.42391       .     S
C156  O164   1.27649       .     S
C156  O173   1.26489       .     S
C157  H120   1.10116       .     S
C157  H121   1.09900       .     S
C157  H122   1.10899       .     S
C157  O167   1.41118       .     S
C158  H123   1.11272   1_655     S
C158  H124   1.10914   1_655     T
C158  H125   1.11202       .     S
C158  O168   1.41272   1_655     D
C159  H126   1.10777       .     S
C159  H127   1.09497   1_665     D
C159  H128   1.10750       .     S
C159  O169   1.40633   1_565     S
C160  H129   1.11261       .     T
C160  H130   1.11273       .     S
C160  H132   1.10906       .     S
C160  O170   1.41179   1_655     S
C161  H133   1.10138   1_545     S
C161  H134   1.10002       .     S
C161  H135   1.10762   1_545     S
C161  O171   1.41183       .     S
C162  H136   1.10633       .     S
C162  H137   1.10556       .     S
C162  H138   1.10916       .     S
C162  O172   1.41807       .     S
Cl163 C149   1.81369       .     S
O164  Zn7    6.36310   1_455     S
O164  C156   1.27649       .     S
O165  Zn0    3.91630   1_665     S
O165  C143   1.27856   1_554     S
O166  Zn3    4.59685   1_656     S
O166  C143   1.26561       .     S
O167  C144   1.43637   1_554     S
O167  C157   1.41118       .     S
O168  C145   1.42134   1_554     S
O168  C158   1.41272   1_455     S
O169  C152   1.43115       .     S
O169  C159   1.40634   1_545     S
O170  C151   1.41799       .     S
O170  C160   1.41179   1_455     S
O171  C144   1.44152       .     S
O171  C161   1.41183       .     S
O172  C149   1.43507       .     S
O172  C162   1.41807       .     S
O173  Zn5    4.70124       .     S
O173  C156   1.26489       .     S
H174  C211   1.10116       .     S
H175  C211   1.09900       .     S
H176  C211   1.10899       .     S
H177  C212   1.11272       .     S
H178  C212   1.10914       .     S
H179  C212   1.11203       .     S
H180  C213   1.10777       .     S
H181  C213   1.09496       .     S
H182  C213   1.10750       .     S
H183  C214   1.11261       .     S
H184  C214   1.11273       .     S
H185  C199   1.11545       .     S
H186  C214   1.10906       .     S
H187  C215   1.10138       .     S
H188  C215   1.10002       .     S
H189  C215   1.10761       .     T
H190  C216   1.10633   1_455     S
H191  C216   1.10556       .     D
H192  C216   1.10916       .     S
H193  C200   1.11149       .     D
H194  C200   1.09002       .     S
H195  C206   1.11348       .     S
H196  C205   1.11814       .     T
C197  C209   1.41019   1_655     S
C197  O219   1.27856   1_655     S
C197  O220   1.26561       .     S
C198  C202   1.62483       .     S
C198  C203   1.61915       .     S
C198  O221   1.43637       .     S
C198  O225   1.44152   1_455     S
C199  H185   1.11545       .     S
C199  C200   1.54261       .     S
C199  C202   1.56786       .     S
C199  O222   1.42134       .     S
C200  H193   1.11149       .     S
C200  H194   1.09002       .     S
C200  C199   1.54261       .     S
C200  C204   1.56020       .     S
C201  C207   1.20082       .     S
C201  C210   1.42391       .     S
C202  C198   1.62483       .     S
C202  C199   1.56786       .     S
C202  C206   1.57646   1_455     S
C202  C208   1.45931       .     S
C203  C198   1.61915       .     S
C203  C204   1.57044       .     S
C203  Cl217  1.81369       .     S
C203  O226   1.43507   1_455     S
C204  C200   1.56020       .     S
C204  C203   1.57044       .     S
C204  C205   1.56377   1_455     S
C204  C207   1.47358       .     S
C205  H196   1.11814       .     S
C205  C204   1.56377   1_655     S
C205  C206   1.57188       .     S
C205  O224   1.41799       .     S
C206  H195   1.11348       .     S
C206  C202   1.57646   1_655     S
C206  C205   1.57188       .     S
C206  O223   1.43115       .     S
C207  C201   1.20082       .     S
C207  C204   1.47358       .     S
C208  C202   1.45931       .     S
C208  C209   1.19390       .     S
C209  C197   1.41019   1_455     S
C209  C208   1.19390       .     S
C210  C201   1.42391       .     S
C210  O218   1.27649       .     S
C210  O227   1.26489       .     S
C211  H174   1.10116       .     S
C211  H175   1.09900       .     T
C211  H176   1.10899       .     S
C211  O221   1.41118       .     D
C212  H177   1.11272       .     S
C212  H178   1.10914       .     D
C212  H179   1.11203       .     S
C212  O222   1.41272       .     S
C213  H180   1.10777       .     S
C213  H181   1.09496       .     S
C213  H182   1.10750       .     S
C213  O223   1.40634       .     S
C214  H183   1.11261       .     S
C214  H184   1.11273       .     A
C214  H186   1.10906       .     A
C214  O224   1.41179       .     A
C215  H187   1.10138       .     S
C215  H188   1.10002       .     A
C215  H189   1.10761       .     S
C215  O225   1.41183       .     A
C216  H190   1.10633   1_655     S
C216  H191   1.10556       .     S
C216  H192   1.10916       .     A
C216  O226   1.41806       .     S
Cl217 C203   1.81369       .     S
O218  Zn2    3.64904       .     S
O218  C210   1.27649       .     S
O219  Zn8    2.76830       .     S
O219  C197   1.27856   1_455     S
O220  Zn8    4.77632   1_655     S
O220  C197   1.26561       .     S
O221  C198   1.43637       .     S
O221  C211   1.41118       .     T
O222  C199   1.42134       .     S
O222  C212   1.41272       .     S
O223  C206   1.43115       .     S
O223  C213   1.40634       .     S
O224  C205   1.41799       .     S
O224  C214   1.41179       .     A
O225  C198   1.44152   1_655     A
O225  C215   1.41183       .     S
O226  C203   1.43507   1_655     S
O226  C216   1.41806       .     S
O227  Zn1    4.40679   1_455     A
O227  C210   1.26489       .     A
H228  C260   1.07687       .     S
H229  C257   1.08453   1_655     S
H230  N274   1.03167       .     A
H231  C268   1.11012       .     S
H232  C268   1.11027       .     S
H233  C268   1.10937       .     A
H234  N275   1.03137       .     S
H235  C269   1.10943       .     S
H236  C269   1.10931       .     S
H237  C269   1.10935       .     S
H238  N276   1.03065       .     S
H239  C270   1.11022       .     S
H240  C270   1.11038       .     S
H241  C270   1.10979   1_565     S
H242  C271   1.11552       .     S
H243  C271   1.10877   1_554     D
H244  C271   1.10526   1_554     S
H245  C272   1.11551       .     D
H246  C272   1.10918       .     S
H247  C272   1.10832       .     S
H248  N277   1.02785       .     S
H249  C273   1.11045       .     S
H250  C273   1.10706       .     S
H251  C273   1.11169       .     S
C252  C253   1.50116       .     S
C252  O278   1.28692       .     A
C252  O279   1.27501   1_565     A
C253  C252   1.50116       .     A
C253  C254   1.42949       .     S
C253  C258   1.41448   1_554     A
C254  C253   1.42949       .     S
C254  C255   1.41286       .     A
C254  N276   1.42961       .     S
C255  C254   1.41286       .     S
C255  C256   1.40426   1_554     A
C255  N277   1.42341       .     S
C256  C255   1.40426   1_556     S
C256  C257   1.39835       .     S
C256  C265   1.44478       .     S
C257  H229   1.08453   1_455     S
C257  C256   1.39835       .     S
C257  C258   1.40331       .     S
C258  C253   1.41448   1_556     S
C258  C257   1.40331       .     S
C258  N275   1.42177   1_455     T
C259  C260   1.39910       .     S
C259  C263   1.40235   1_655     S
C259  N274   1.43247       .     S
C260  H228   1.07687       .     S
C260  C259   1.39910       .     S
C260  C266   1.40778   1_655     A
C261  C262   1.41965       .     A
C261  C266   1.40899       .     S
C261  O283   1.38382       .     S
C262  C261   1.41965       .     S
C262  C263   1.42079       .     A
C262  O282   1.38644       .     A
C263  C259   1.40235   1_455     S
C263  C262   1.42079       .     S
C263  C264   1.44646       .     A
C264  C263   1.44646       .     S
C264  C265   1.20647       .     S
C265  C256   1.44478       .     A
C265  C264   1.20647       .     S
C266  C260   1.40778   1_455     S
C266  C261   1.40899       .     S
C266  C267   1.49423       .     S
C267  C266   1.49423       .     S
C267  O280   1.28920       .     S
C267  O281   1.26715   1_455     S
C268  H231   1.11012       .     S
C268  H232   1.11027       .     S
C268  H233   1.10937       .     D
C268  N274   1.44466       .     S
C269  H235   1.10943       .     D
C269  H236   1.10931       .     S
C269  H237   1.10935       .     S
C269  N275   1.44545       .     T
C270  H239   1.11022       .     S
C270  H240   1.11038       .     S
C270  H241   1.10979   1_545     S
C270  N276   1.44874   1_545     S
C271  H242   1.11552       .     S
C271  H243   1.10877   1_556     S
C271  H244   1.10526   1_556     S
C271  O282   1.41187       .     S
C272  H245   1.11551       .     S
C272  H246   1.10918       .     S
C272  H247   1.10832       .     S
C272  O283   1.40902       .     S
C273  H249   1.11045       .     S
C273  H250   1.10706       .     S
C273  H251   1.11169       .     S
C273  N277   1.44231       .     S
N274  H230   1.03167       .     S
N274  C259   1.43247       .     S
N274  C268   1.44466       .     S
N275  H234   1.03137       .     S
N275  C258   1.42177   1_655     S
N275  C269   1.44545       .     S
N276  H238   1.03065       .     S
N276  C254   1.42961       .     S
N276  C270   1.44874   1_565     S
N277  H248   1.02785       .     S
N277  C255   1.42341       .     S
N277  C273   1.44231       .     S
O278  Zn1    3.13728   1_455     S
O278  C252   1.28692       .     S
O279  Zn3    2.37389   1_545     S
O279  C252   1.27501   1_545     S
O280  Zn6    0.95029       .     S
O280  C267   1.28920       .     S
O281  Zn7    1.60000       .     S
O281  C267   1.26715   1_655     S
O282  C262   1.38644       .     S
O282  C271   1.41187       .     S
O283  C261   1.38382       .     S
O283  C272   1.40902       .     S
H284  C321   1.10116       .     S
H285  C321   1.09900       .     S
H286  C321   1.10899       .     S
H287  C322   1.11272       .     S
H288  C322   1.10914       .     S
H289  C322   1.11202       .     S
H290  C323   1.10777       .     S
H291  C323   1.09496       .     T
H292  C323   1.10750       .     S
H293  C324   1.11261       .     D
H294  C324   1.11273       .     S
H295  C309   1.11545       .     D
H296  C324   1.10906       .     S
H297  C325   1.10138       .     S
H298  C325   1.10002       .     T
H299  C325   1.10762       .     S
H300  C326   1.10633       .     S
H301  C326   1.10556       .     S
H302  C326   1.10916       .     S
H303  C310   1.11149       .     S
H304  C310   1.09002       .     S
H305  C316   1.11348       .     S
H306  C315   1.11814       .     S
C307  C319   1.41019   1_554     S
C307  O329   1.27856       .     S
C307  O330   1.26561   1_554     S
C308  C312   1.62483       .     S
C308  C313   1.61915       .     S
C308  O331   1.43637   1_556     S
C308  O335   1.44152       .     S
C309  H295   1.11545       .     S
C309  C310   1.54261       .     S
C309  C312   1.56786       .     S
C309  O332   1.42134   1_556     S
C310  H303   1.11149       .     S
C310  H304   1.09002       .     S
C310  C309   1.54261       .     S
C310  C314   1.56020       .     S
C311  C317   1.20082       .     S
C311  C320   1.42391       .     S
C312  C308   1.62483       .     S
C312  C309   1.56786       .     S
C312  C316   1.57646       .     S
C312  C318   1.45931       .     S
C313  C308   1.61915       .     S
C313  C314   1.57045       .     S
C313  Cl327  1.81368       .     S
C313  O336   1.43507       .     S
C314  C310   1.56020       .     S
C314  C313   1.57045       .     S
C314  C315   1.56377       .     S
C314  C317   1.47358       .     S
C315  H306   1.11814       .     S
C315  C314   1.56377       .     S
C315  C316   1.57188       .     S
C315  O334   1.41799       .     S
C316  H305   1.11348       .     S
C316  C312   1.57646       .     S
C316  C315   1.57188       .     S
C316  O333   1.43115       .     S
C317  C311   1.20082       .     S
C317  C314   1.47358       .     S
C318  C312   1.45931       .     T
C318  C319   1.19390       .     S
C319  C307   1.41019   1_556     D
C319  C318   1.19390       .     S
C320  C311   1.42391       .     S
C320  O328   1.27649       .     S
C320  O337   1.26489       .     S
C321  H284   1.10116       .     S
C321  H285   1.09900       .     S
C321  H286   1.10899       .     S
C321  O331   1.41118       .     S
C322  H287   1.11272       .     S
C322  H288   1.10914       .     S
C322  H289   1.11202       .     S
C322  O332   1.41272       .     S
C323  H290   1.10777       .     S
C323  H291   1.09496       .     S
C323  H292   1.10750       .     S
C323  O333   1.40633       .     S
C324  H293   1.11261       .     S
C324  H294   1.11273       .     S
C324  H296   1.10906       .     S
C324  O334   1.41179       .     S
C325  H297   1.10138       .     S
C325  H298   1.10002       .     S
C325  H299   1.10762       .     S
C325  O335   1.41183       .     S
C326  H300   1.10633       .     S
C326  H301   1.10556       .     S
C326  H302   1.10916       .     S
C326  O336   1.41807       .     S
Cl327 C313   1.81368       .     S
O328  Zn6    7.66929       .     S
O328  C320   1.27649       .     S
O329  Zn1    4.75418       .     S
O329  C307   1.27856       .     S
O330  Zn3    7.70244   1_656     S
O330  C307   1.26561   1_556     S
O331  C308   1.43637   1_554     S
O331  C321   1.41118       .     S
O332  C309   1.42134   1_554     S
O332  C322   1.41272       .     S
O333  C316   1.43115       .     S
O333  C323   1.40633       .     S
O334  C315   1.41799       .     S
O334  C324   1.41179       .     S
O335  C308   1.44152       .     S
O335  C325   1.41183       .     S
O336  C313   1.43507       .     S
O336  C326   1.41807       .     S
O337  Zn6    7.08185       .     S
O337  C320   1.26489       .     S
