data_I
_chemical_name_common  '/home/sibivarshan_m7/MOFDiff/MOFDiff/results/nh3_target_22.0mmol/cif/sample_8'
_cell_length_a 22.02191
_cell_length_b 22.13072
_cell_length_c 26.72202
_cell_angle_alpha 110.72733
_cell_angle_beta  109.80682
_cell_angle_gamma 96.03505
_space_group_name_H-M_alt      'P 1'


loop_
_space_group_symop_operation_xyz
  'x, y, z' 

loop_
_atom_site_label
_atom_site_fract_x
_atom_site_fract_y
_atom_site_fract_z
_atom_site_type_symbol
Zn0   0.60533774 0.5141023 0.5253271    Zn
Zn1   0.66287446 0.62258095 0.49562642    Zn
Zn2   0.16881248 0.079959966 0.5769884    Zn
Zn3   0.101980075 0.05807998 0.44463688    Zn
H4    0.89660025 0.22237533 0.4768636     H
H5    0.83095646 0.1567313 0.41346776     H
H6    0.8151948 0.23616801 0.44755992     H
H7    0.766681 0.16274272 0.4829111     H
H8    0.8394562 0.22028162 0.53849953     H
H9    0.8433434 0.017784724 0.34863552     H
H10   0.93234074 0.029465752 0.3819363     H
H11   0.88065076 0.95330507 0.31901085     H
H12   0.91459054 0.93389595 0.4066299     H
H13   0.82807934 0.9200316 0.37753978     H
H14   0.9011518 0.9219673 0.5358551     H
H15   0.89505327 0.8829649 0.46218598     H
H16   0.9631103 0.87988555 0.5208351     H
H17   0.99969405 0.9677845 0.48849374     H
H18   0.013652086 0.995504 0.56250817     H
H19   0.9297718 0.19353761 0.6831208     H
H20   0.8529956 0.14000185 0.62369275     H
H21   0.8947393 0.29429528 0.6749961     H
H22   0.8160232 0.24155796 0.616858     H
H23   0.78918284 0.19830464 0.68272394     H
H24   0.8065941 0.28828987 0.71201897     H
H25   0.86872923 0.24935475 0.74201226     H
C26   0.76545703 0.027979035 0.40804526     C
C27   0.878259 0.012756554 0.4578869     C
C28   0.9320203 0.027271474 0.5115885     C
C29   0.9449954 0.08804982 0.56011486     C
C30   0.904531 0.13251457 0.5568358     C
C31   0.8512827 0.11820309 0.5038095     C
C32   0.8323167 0.05337561 0.45711347     C
C33   0.006799817 0.11133143 0.6119283     C
C34   0.8214277 0.17547058 0.49677053     C
C35   0.8420698 0.1987026 0.45594874     C
C36   0.87478757 0.960318 0.40037218     C
C37   0.8831589 0.9923502 0.36012822     C
C38   0.9733891 0.97701454 0.51821804     C
C39   0.9303576 0.9115771 0.5084799     C
C40   0.89059764 0.1884579 0.64160496     C
C41   0.8574101 0.24584162 0.65672624     C
C42   0.82877606 0.2451685 0.70118076     C
O43   0.73572373 0.07130609 0.39573216     O
O44   0.062391162 0.120678 0.6059108     O
O45   0.7370773 0.9636085 0.37940875     O
O46   0.004199505 0.12406783 0.66210276     O
O47   0.92164236 0.19383122 0.60407674     O
Zn48  0.68839705 0.034130592 0.5216416    Zn
Zn49  0.58076245 0.10387713 0.50243795    Zn
H50   0.7680599 0.65825415 0.927582     H
H51   0.0037760735 0.9798899 0.09556498     H
H52   0.9773598 0.9469578 0.992047     H
H53   0.79449654 0.6911803 0.03110249     H
H54   0.89806527 0.97090924 0.23174785     H
H55   0.8736473 0.66714686 0.7913703     H
H56   0.98490006 0.8056938 0.22668369     H
H57   0.7870794 0.8325322 0.79649454     H
H58   0.81625414 0.9882783 0.2920368     H
H59   0.78978276 0.091112256 0.34554905     H
H60   0.88000196 0.18582654 0.42946848     H
H61   0.99739504 0.17807531 0.45933172     H
H62   0.024979472 0.07601023 0.40599513     H
H63   0.9554075 0.64951473 0.7312073     H
H64   0.98170626 0.54651016 0.6777718     H
H65   0.89141625 0.45192707 0.59379494     H
H66   0.7741195 0.45997286 0.5637755     H
H67   0.7466976 0.56221145 0.61703414     H
H68   0.9368878 0.79891425 0.3614972     H
H69   0.98995924 0.72860324 0.40801853     H
H70   0.10037446 0.71215695 0.410547     H
H71   0.15778005 0.7659833 0.36592716     H
H72   0.10586119 0.8371083 0.31975573     H
H73   0.8350764 0.83908725 0.66155183     H
H74   0.7822297 0.90964484 0.6152148     H
H75   0.6720134 0.92652893 0.6129699     H
H76   0.61457515 0.8728658 0.6576438     H
H77   0.6662536 0.8014861 0.7036272     H
C78   0.9851927 0.79220873 0.3623774     C
C79   0.01502192 0.7522506 0.38863787     C
C80   0.07726908 0.7429599 0.39005154     C
C81   0.10963678 0.7733398 0.3649202     C
C82   0.9227644 0.94220346 0.25402805     C
C83   0.8490048 0.6958981 0.769104     C
C84   0.8922671 0.83173126 0.90263045     C
C85   0.87958914 0.8064069 0.12051905     C
C86   0.8181387 0.72985125 0.87984014     C
C87   0.95369726 0.9082929 0.14330691     C
C88   0.8328469 0.7478602 0.9396503     C
C89   0.9389992 0.89028084 0.08349788     C
C90   0.97215915 0.84930044 0.25124723     C
C91   0.9082058 0.85191035 0.9628724     C
C92   0.8636402 0.7862307 0.060275767     C
C93   0.87821347 0.8094639 0.98137367     C
C94   0.79975814 0.78887326 0.77189523     C
C95   0.89363265 0.8286772 0.04177461     C
C96   0.80316544 0.7059176 0.95866364     C
C97   0.9686706 0.93222654 0.0644835     C
C98   0.9534866 0.91329074 0.0049656113     C
C99   0.8183696 0.7248475 0.018183973     C
C100  0.92247987 0.024381518 0.3454487     C
C101  0.8561793 0.029517889 0.328324     C
C102  0.8410041 0.08759141 0.3586141     C
C103  0.89186364 0.14101315 0.4059197     C
C104  0.9580499 0.13663101 0.42276427     C
C105  0.9734568 0.07872164 0.39254856     C
C106  0.8492072 0.613641 0.6776823     C
C107  0.9154519 0.6083413 0.69488204     C
C108  0.93052506 0.5501621 0.6646256     C
C109  0.8796251 0.4968093 0.6172807     C
C110    0.8135 0.50136596 0.600363     C
C111  0.7981848 0.55938375 0.6305438     C
C112  0.017862797 0.8237175 0.3377448     C
C113  0.080032825 0.8134342 0.3386891     C
C114  0.75415355 0.8145563 0.685465     C
C115  0.7868418 0.84596795 0.6607835     C
C116  0.75714296 0.88606274 0.6346196     C
C117  0.6950033 0.89560086 0.6333519     C
C118  0.66262746 0.86531514 0.65853333     C
C119  0.69209564 0.8250731 0.6846659     C
C120  0.9383826 0.9623114 0.31402925     C
C121  0.8333813 0.6757793 0.7091007     C
C122  0.9870924 0.8672615 0.3109237     C
C123  0.7848359 0.7709301 0.71224284     C
C124  0.970599 0.9245824 0.3432721     C
C125  0.801247 0.71355873 0.6798761     C
C126   0.78504 0.6933637 0.61638904     C
C127  0.939755 0.8861488 0.22244823     C
C128  0.83209103 0.75199234 0.80070007     C
C129  0.98680604 0.9447775 0.40675917     C
N130  0.8478253 0.7715983 0.8623353     N
N131  0.92402077 0.8665429 0.1608129     N
O132  0.82238066 0.6711478 0.59298545     O
O133  0.94946545 0.9669934 0.43016288     O
O134  0.7329782 0.6972358 0.58212537     O
O135  0.03886795 0.9409053 0.44102296     O
O136  0.92149675 0.8716977 0.8846119     O
O137  0.8503696 0.7664376 0.13853887     O
O138  0.77401876 0.67133063 0.8395298     O
O139  0.997807 0.9668164 0.18361597     O
H140  0.531868 0.9292854 0.6198379     H
H141  0.5887045 0.8780676 0.6249542     H
H142  0.4400893 0.83099836 0.5392848     H
H143  0.49760443 0.77861726 0.54306424     H
H144  0.51549566 0.8028266 0.64593214     H
H145  0.42827964 0.7688292 0.59774816     H
H146  0.4593851 0.85713035 0.6438474     H
H147  0.5205333 0.87255704 0.41026047     H
H148  0.5302592 0.7946783 0.36641732     H
H149  0.4479322 0.80606765 0.35698056     H
H150  0.47058442 0.73898095 0.41370207     H
H151  0.46952122 0.8188653 0.4579071     H
H152  0.7101932 0.70225084 0.58997136     H
H153  0.63509977 0.64988434 0.52812886     H
H154  0.71239024 0.62582844 0.53699195     H
H155  0.68948096 0.6693998 0.4616235     H
H156  0.75934345 0.72278017 0.523443     H
H157  0.8329534 0.81753975 0.55157113     H
H158  0.8186551 0.8992648 0.56819373     H
H159  0.8775654 0.88208413 0.6239448     H
H160  0.78179353 0.88049173 0.6472242     H
H161  0.7819358 0.7977247 0.61505735     H
C162  0.7003528 0.94661623 0.60814315     C
C163  0.5728896 0.6891339 0.4181554     C
C164  0.5978491 0.8584532 0.53180593     C
C165  0.5697965 0.80188555 0.47867787     C
C166  0.606424 0.7535106 0.46860617     C
C167  0.6712306 0.7632107 0.5114059     C
C168  0.7037858 0.82716256 0.5585789     C
C169  0.66741204 0.8765585 0.56558067     C
C170  0.5443123 0.8847191 0.5937862     C
C171  0.48556897 0.8237852 0.5685925     C
C172  0.47147217 0.8126536 0.61721563     C
C173  0.4990914 0.7920955 0.43554828     C
C174  0.49975488 0.81777465 0.38959453     C
C175  0.70467424 0.70552343 0.50751853     C
C176  0.68954885 0.66885245 0.5426987     C
C177  0.7741819 0.8410215 0.604443     C
C178  0.82870185 0.86112964 0.5856542     C
O179  0.7622029 0.9725762 0.6198901     O
O180  0.6656391 0.9813673 0.6315841     O
O181  0.5439586 0.6862517 0.36574265     O
O182  0.56945497 0.6367427 0.4287704     O
O183  0.55698574 0.8971781 0.54910904     O
H184  0.2686195 0.4116404 0.9680702     H
H185  0.49853456 0.22173688 0.050168432     H
H186  0.4680833 0.19998714 0.9478519     H
H187  0.2990562 0.43336973 0.070381135     H
H188  0.54891807 0.4060282 0.24379815     H
H189  0.21820077 0.22747357 0.77446127     H
H190  0.34624144 0.3187506 0.20465213     H
H191  0.4209333 0.31448174 0.81356007     H
H192  0.60787946 0.52441424 0.34372613     H
H193  0.7264451 0.574253 0.41199577     H
H194  0.78810155 0.513154 0.46540278     H
H195  0.73119694 0.4011561 0.44964537     H
H196  0.612917 0.35015196 0.38109577     H
H197  0.15901269 0.10922194 0.6746967     H
H198  0.040361553 0.059619576 0.60658544     H
H199  0.97886103 0.12075883 0.5531428     H
H200  0.036000628 0.2325559 0.5686842     H
H201  0.15437348 0.2833339 0.6370782     H
H202  0.3731423 0.43952549 0.3728141     H
H203  0.28422147 0.40949765 0.40296152     H
H204  0.219278 0.2917593 0.36018768     H
H205  0.2431323 0.20366639 0.28655222     H
H206  0.332382 0.23257108 0.25629923     H
H207  0.39380458 0.19367118 0.6452657     H
H208  0.4828874 0.22353362 0.615224     H
H209  0.5482028 0.34117392 0.6582205     H
H210  0.52452964 0.42932004 0.7319264     H
H211  0.43511665 0.40059614 0.7620763     H
C212  0.34519508 0.38787383 0.3538456     C
C213  0.2947914 0.3710792 0.37092072     C
C214  0.25815928 0.30469885 0.34679416     C
C215  0.2716418 0.25504017 0.30530468     C
C216  0.5115742 0.39213768 0.2584612     C
C217  0.25556597 0.24130699 0.75978935     C
C218  0.38331944 0.25393116  0.88658     C
C219  0.3838201 0.3794257 0.13165304     C
C220  0.31304637 0.32889235 0.8937808     C
C221  0.45410776 0.30448496 0.12445784     C
C222  0.32987633 0.34212077 0.9531418     C
C223  0.43727043 0.29124632 0.06509399     C
C224  0.3973616 0.34247857 0.23628736     C
C225  0.40179566 0.26591435 0.94587314     C
C226  0.36535114 0.3674527 0.07236264     C
C227  0.37469175 0.31034127 0.97926915     C
C228  0.36978537 0.29080623 0.78191215     C
C229  0.39245504 0.3230258 0.038966727     C
C230  0.3031814 0.3864396 0.9869642     C
C231  0.46397275 0.24693766 0.03127454     C
C232  0.44646147 0.23442818 0.9724457     C
C233  0.32067809 0.39892864 0.045787383     C
C234  0.6015512 0.4339067 0.35783246     C
C235  0.63441765 0.49698502 0.36643624     C
C236  0.7014819 0.52541155 0.40516105     C
C237  0.7362673 0.490965 0.43526503     C
C238  0.7041733 0.4278252 0.42638966     C
C239  0.6371762 0.39917505 0.3876482     C
C240  0.16554685 0.1996312 0.66045207     C
C241  0.13254991 0.13666119 0.6519563     C
C242  0.065429375 0.10836866 0.61331236     C
C243  0.030726574 0.14283544 0.583181     C
C244  0.06295977 0.20586157 0.59194815     C
C245  0.13002054 0.23438805 0.6306116     C
C246  0.3597086 0.33807325 0.31276235     C
C247  0.32208362 0.27159697 0.28816655     C
C248  0.40749988 0.29513222 0.7054684     C
C249  0.4219047 0.24529281 0.6643255     C
C250  0.472395 0.2619866 0.64730024     C
C251  0.50923836 0.3283098 0.6715392     C
C252  0.4958573 0.37799704 0.7130856     C
C253  0.44532013 0.36154643 0.73017395     C
C254  0.5300996 0.40435144 0.3176237     C
C255  0.23703188 0.22909854 0.70062685     C
C256  0.4140322 0.35539773 0.29540876     C
C257  0.35312992 0.2778864 0.7228124     C
C258  0.4811226 0.3863418 0.33695325     C
C259  0.28602415 0.2470252 0.6812825     C
C260  0.2673532 0.23369259 0.61853474     C
C261  0.44558948 0.3609682 0.2175364     C
C262  0.32155734 0.2723989 0.80069953     C
C263  0.49979356 0.39967445 0.399701     C
N264  0.33968368 0.2853426 0.861617     N
N265  0.42746308 0.34802446 0.15661877     N
O266  0.2266555 0.18257335 0.5776564     O
O267  0.5404913 0.45079374 0.44057947     O
O268  0.2910916 0.27270147 0.60241747     O
O269  0.47605523 0.36066562 0.41581842     O
O270  0.40834677 0.21072182 0.8540673     O
O271  0.35878545 0.42262477 0.16416295     O
O272  0.27086508 0.35985228 0.86864394     O
O273  0.49629635 0.27353516 0.14959753     O
H274  0.70845276 0.20208898 0.6151995     H
H275  0.6513219 0.25302708 0.6102542     H
H276  0.8049105 0.30195048 0.6590264     H
H277  0.7474113 0.35413197 0.653083     H
H278  0.70672655 0.3238003 0.7193371     H
H279  0.7958239 0.3586102 0.75335026     H
H280  0.76266444 0.26964948 0.7247893     H
H281  0.7678745 0.27163935 0.46758944     H
H282  0.76407766 0.35106143 0.46519542     H
H283  0.8423962 0.33890057 0.5053196     H
H284  0.80196875 0.4011844 0.57786363     H
H285  0.7979386 0.31994778 0.5737002     H
H286  0.5357094 0.42997682 0.59553033     H
H287  0.61580426 0.48394245 0.61947995     H
H288  0.5412222 0.5084427 0.5892114     H
H289  0.5847956 0.47044364 0.51325685     H
H290  0.50955254 0.4153821 0.49220932     H
H291  0.4427701 0.32217115 0.41576776     H
H292  0.45799372 0.24074052 0.39484632     H
H293  0.38871548 0.25495586 0.41475192     H
H294  0.46989733 0.25301304 0.5001401     H
H295  0.4714622 0.33623573 0.51722896     H
C296  0.5593021 0.18929401 0.4829849     C
C297  0.70368886 0.4517373 0.54128736     C
C298  0.6652524 0.27874184 0.5321028     C
C299  0.6999295 0.33717206 0.5348066     C
C300  0.6653175 0.3859533 0.5282265     C
C301  0.59609735 0.3748484 0.51779544     C
C302  0.55942243 0.30968338 0.50270414     C
C303  0.59466845 0.2601162 0.50581723     C
C304  0.70025885 0.24774183 0.6083919     C
C305  0.75541395 0.30793387 0.6588194     C
C306  0.7549515 0.31524682 0.71765345     C
C307  0.774601 0.34826913 0.5489223     C
C308  0.78776747 0.32626233 0.49335757     C
C309  0.562071 0.43226305 0.523996     C
C310  0.5639675 0.46547347 0.5856866     C
C311  0.48465446 0.2944106 0.48897615     C
C312  0.4413696 0.27709296 0.42480904     C
O313  0.5019953 0.16431965 0.43787903     O
O314  0.5876789 0.15298173 0.50773346     O
O315  0.7432175 0.45753938 0.51549375     O
O316  0.6999731 0.50224197 0.5820267     O
O317  0.7011143 0.23883258 0.5532834     O
H318  0.2476514 0.006880378 0.58574086     H
H319  0.3144668 0.07637791 0.6082381     H
H320  0.32657215 0.9338463 0.5937948     H
H321  0.39474416 0.003593214 0.6154413     H
H322  0.37492228 0.06733855 0.7033494     H
H323  0.38864803 0.98782897 0.70137745     H
H324  0.30511332 0.9987938 0.68179107     H
H325  0.30176786 0.89946496 0.40396073     H
H326  0.38438258 0.9161524 0.40652585     H
H327  0.35262957 0.8427858 0.413903     H
H328  0.4281008 0.924165 0.5124339     H
H329  0.34550273 0.9133682 0.5062711     H
H330  0.52558017 0.22775117 0.6519003     H
H331  0.56113416 0.15767841 0.64400613     H
H332  0.60478616 0.23262423 0.6460476     H
H333  0.55344033 0.15064144 0.54350144     H
H334  0.5155735 0.21626343 0.552284     H
H335  0.43544444 0.24593112 0.49627587     H
H336  0.34749445 0.20784539 0.46352264     H
H337  0.38001567 0.29356137 0.5165039     H
H338  0.35876176 0.23530799 0.5715384     H
H339  0.44423282 0.25386712 0.5927406     H
C340  0.27025872 0.12015485 0.5103494     C
C341  0.5044645 0.027213948 0.51945907     C
C342  0.3361428 0.036877126 0.51937014     C
C343  0.38748124 0.0096528465 0.50925314     C
C344  0.44633627 0.053470258 0.51981634     C
C345  0.45231983 0.12377151 0.5391734     C
C346  0.39436552 0.14752837 0.53662187     C
C347  0.33448628 0.101616114 0.5220259     C
C348  0.29657936 0.021087406 0.58408886     C
C349  0.345287 0.989113 0.6160077     C
C350  0.35385698 0.012343792 0.6795696     C
C351  0.3801642 0.93471205 0.49140123     C
C352  0.353308 0.896252 0.42501608     C
C353  0.5201082 0.17307028 0.5635411     C
C354  0.55476123 0.19912238 0.63022494     C
C355  0.3974183 0.22201249 0.5547521     C
C356  0.38957825 0.24316879 0.5046446     C
O357  0.2584043 0.16237436 0.4866171     O
O358  0.22609872 0.09192109 0.52258515     O
O359  0.49999028 0.9753797 0.4743622     O
O360  0.55799836 0.054690573 0.5669554     O
O361  0.28632677 0.9985169 0.52427393     O
loop_
_geom_bond_atom_site_label_1
_geom_bond_atom_site_label_2
_geom_bond_distance
_geom_bond_site_symmetry_2
_ccdc_geom_bond_type
Zn0   Zn1    3.06420       .     S
Zn0   O132   4.93926       .     S
Zn0   O134   4.12185       .     S
Zn0   O182   4.32140       .     S
Zn0   O316   2.22809       .     S
Zn1   Zn0    3.06420       .     S
Zn1   O181   4.35517       .     S
Zn1   O267   3.88345       .     S
Zn1   O269   5.94656       .     S
Zn1   O315   4.34141       .     S
Zn2   Zn3    3.16531       .     S
Zn2   O44    2.84261       .     S
Zn2   O46    4.90177       .     S
Zn2   O266   2.47539       .     S
Zn2   O268   4.49451       .     S
Zn3   Zn2    3.16531       .     D
Zn3   O133   3.55497   1_445     S
Zn3   O135   2.76395   1_545     S
Zn3   O357   3.51122       .     S
Zn3   O358   2.64151       .     A
H4    C35    1.11109       .     A
H5    C35    1.10854       .     S
H6    C35    1.11033       .     S
H7    C34    1.10553       .     S
H8    C34    1.10406       .     S
H9    C37    1.10617   1_545     A
H10   C37    1.11073   1_545     S
H11   C37    1.11074       .     A
H12   C36    1.10266       .     S
H13   C36    1.10543       .     S
H14   C39    1.11020       .     S
H15   C39    1.10723       .     A
H16   C39    1.10907       .     A
H17   C38    1.10908       .     S
H18   C38    1.10638   1_455     S
H19   C40    1.10921       .     S
H20   C40    1.11630       .     S
H21   C41    1.11179       .     D
H22   C41    1.10768       .     S
H23   C42    1.11152       .     S
H24   C42    1.10971       .     S
H25   C42    1.11082       .     S
C26   C32    1.48291       .     S
C26   O43    1.29064       .     S
C26   O45    1.31248   1_545     S
C27   C28    1.41651       .     S
C27   C32    1.42209       .     S
C27   C36    1.53425   1_545     S
C28   C27    1.41651       .     S
C28   C29    1.41627       .     S
C28   C38    1.53021   1_545     S
C29   C28    1.41627       .     S
C29   C30    1.40092       .     S
C29   C33    1.45101   1_655     S
C30   C29    1.40092       .     S
C30   C31    1.40048       .     S
C30   O47    1.39088       .     S
C31   C30    1.40048       .     S
C31   C32    1.42948       .     S
C31   C34    1.52775       .     D
C32   C26    1.48291       .     S
C32   C27    1.42209       .     S
C32   C31    1.42948       .     S
C33   C29    1.45101   1_455     A
C33   O44    1.29270       .     A
C33   O46    1.29162       .     S
C34   H7     1.10553       .     S
C34   H8     1.10406       .     S
C34   C31    1.52775       .     S
C34   C35    1.53128       .     A
C35   H4     1.11109       .     S
C35   H5     1.10854       .     A
C35   H6     1.11033       .     S
C35   C34    1.53128       .     S
C36   H12    1.10266       .     S
C36   H13    1.10543       .     A
C36   C27    1.53425   1_565     A
C36   C37    1.52954       .     S
C37   H9     1.10617   1_565     S
C37   H10    1.11073   1_565     S
C37   H11    1.11074       .     S
C37   C36    1.52954       .     D
C38   H17    1.10908       .     S
C38   H18    1.10638   1_655     S
C38   C28    1.53021   1_565     S
C38   C39    1.52987       .     S
C39   H14    1.11020       .     S
C39   H15    1.10723       .     S
C39   H16    1.10907       .     S
C39   C38    1.52987       .     S
C40   H19    1.10921       .     S
C40   H20    1.11630       .     S
C40   C41    1.53044       .     S
C40   O47    1.42097       .     S
C41   H21    1.11179       .     D
C41   H22    1.10768       .     S
C41   C40    1.53044       .     S
C41   C42    1.52551       .     S
C42   H23    1.11152       .     S
C42   H24    1.10971       .     S
C42   H25    1.11082       .     S
C42   C41    1.52551       .     A
O43   C26    1.29064       .     A
O43   Zn49   5.09433       .     A
O44   Zn2    2.84261       .     A
O44   C33    1.29270       .     A
O45   C26    1.31248   1_565     A
O45   Zn48   4.11644   1_565     S
O46   Zn2    4.90177       .     S
O46   C33    1.29162       .     A
O47   C30    1.39088       .     A
O47   C40    1.42097       .     S
Zn48  O45    4.11644   1_545     A
Zn48  Zn49   2.96141       .     S
Zn48  O179   3.39049   1_545     A
Zn48  O314   3.65184       .     A
Zn48  O359   3.82779   1_545     A
Zn49  O43    5.09433       .     A
Zn49  Zn48   2.96141       .     S
Zn49  O180   5.10600   1_545     A
Zn49  O313   2.80492       .     S
Zn49  O360   2.49156       .     S
H50   C96    1.08323       .     S
H51   C97    1.08323   1_455     A
H52   C98    1.08323   1_556     A
H53   C99    1.08323       .     S
H54   C82    1.08389       .     A
H55   C83    1.08404       .     S
H56   C90    1.08363       .     A
H57   C94    1.08404       .     S
H58   C101   1.08320   1_565     S
H59   C102   1.08221       .     S
H60   C103   1.08255       .     D
H61   C104   1.08238       .     D
H62   C105   1.08322   1_455     S
H63   C107   1.08316       .     S
H64   C108   1.08223       .     A
H65   C109   1.08227       .     A
H66   C110   1.08237       .     A
H67   C111   1.08322       .     A
H68   C78    1.08300       .     S
H69   C79    1.08237   1_655     S
H70   C80    1.08255       .     A
H71   C81    1.08228       .     A
H72   C113   1.08350       .     A
H73   C115   1.08322       .     S
H74   C116   1.08237       .     A
H75   C117   1.08228       .     S
H76   C118   1.08223       .     A
H77   C119   1.08316       .     A
C78   H68    1.08300       .     A
C78   C79    1.39819   1_655     S
C78   C112   1.40623   1_655     S
C79   H69    1.08237   1_455     D
C79   C78    1.39819   1_455     S
C79   C80    1.39731       .     D
C80   H70    1.08255       .     S
C80   C79    1.39731       .     S
C80   C81    1.39798       .     A
C81   H71    1.08228       .     A
C81   C80    1.39798       .     S
C81   C113   1.39853       .     S
C82   H54    1.08389       .     A
C82   C120   1.40574       .     A
C82   C127   1.40058       .     S
C83   H55    1.08404       .     S
C83   C121   1.40575       .     S
C83   C128   1.40040       .     A
C84   C91    1.41042       .     S
C84   N130   1.37329       .     A
C84   O136   1.34917       .     A
C85   C92    1.41043       .     A
C85   N131   1.37324       .     A
C85   O137   1.34913       .     A
C86   C88    1.41042       .     A
C86   N130   1.37329       .     A
C86   O138   1.34918       .     S
C87   C89    1.41043       .     S
C87   N131   1.37324       .     S
C87   O139   1.34913       .     A
C88   C86    1.41042       .     A
C88   C93    1.40807       .     S
C88   C96    1.40652       .     A
C89   C87    1.41043       .     S
C89   C95    1.40807       .     A
C89   C97    1.40647       .     A
C90   H56    1.08363       .     S
C90   C122   1.40626       .     A
C90   C127   1.40032       .     S
C91   C84    1.41042       .     S
C91   C93    1.40807       .     S
C91   C98    1.40652   1_556     D
C92   C85    1.41043       .     S
C92   C95    1.40807       .     D
C92   C99    1.40647       .     S
C93   C88    1.40807       .     S
C93   C91    1.40807       .     S
C93   C95    1.41903   1_556     S
C94   H57    1.08404       .     S
C94   C123   1.40575       .     S
C94   C128   1.40040       .     A
C95   C89    1.40807       .     A
C95   C92    1.40807       .     A
C95   C93    1.41903   1_554     A
C96   H50    1.08323       .     A
C96   C88    1.40652       .     A
C96   C99    1.39831   1_556     S
C97   H51    1.08323   1_655     S
C97   C89    1.40647       .     A
C97   C98    1.39831       .     A
C98   H52    1.08323   1_554     S
C98   C91    1.40652   1_554     A
C98   C97    1.39831       .     S
C99   H53    1.08323       .     A
C99   C92    1.40647       .     A
C99   C96    1.39831   1_554     A
C100  C101   1.40465       .     A
C100  C105   1.40633       .     S
C100  C120   1.48275   1_545     A
C101  H58    1.08320   1_545     S
C101  C100   1.40465       .     S
C101  C102   1.39853       .     S
C102  H59    1.08221       .     A
C102  C101   1.39853       .     A
C102  C103   1.39798       .     S
C103  H60    1.08255       .     A
C103  C102   1.39798       .     S
C103  C104   1.39730       .     A
C104  H61    1.08238       .     S
C104  C103   1.39730       .     S
C104  C105   1.39790       .     S
C105  H62    1.08322   1_655     D
C105  C100   1.40633       .     D
C105  C104   1.39790       .     S
C106  C107   1.40461       .     S
C106  C111   1.40624       .     A
C106  C121   1.48299       .     A
C107  H63    1.08316       .     A
C107  C106   1.40461       .     A
C107  C108   1.39876       .     S
C108  H64    1.08223       .     S
C108  C107   1.39876       .     A
C108  C109   1.39802       .     A
C109  H65    1.08227       .     A
C109  C108   1.39802       .     S
C109  C110   1.39717       .     A
C110  H66    1.08237       .     S
C110  C109   1.39717       .     A
C110  C111   1.39828       .     A
C111  H67    1.08322       .     A
C111  C106   1.40624       .     S
C111  C110   1.39828       .     S
C112  C78    1.40623   1_455     D
C112  C113   1.40465       .     S
C112  C122   1.48275   1_455     D
C113  H72    1.08350       .     S
C113  C81    1.39853       .     S
C113  C112   1.40465       .     A
C114  C115   1.40624       .     A
C114  C119   1.40461       .     S
C114  C123   1.48299       .     S
C115  H73    1.08322       .     A
C115  C114   1.40624       .     A
C115  C116   1.39828       .     S
C116  H74    1.08237       .     S
C116  C115   1.39828       .     S
C116  C117   1.39739       .     A
C117  H75    1.08228       .     S
C117  C116   1.39739       .     A
C117  C118   1.39794       .     A
C118  H76    1.08223       .     A
C118  C117   1.39794       .     A
C118  C119   1.39876       .     A
C119  H77    1.08316       .     A
C119  C114   1.40461       .     A
C119  C118   1.39876       .     S
C120  C82    1.40574       .     S
C120  C100   1.48275   1_565     S
C120  C124   1.42191       .     A
C121  C83    1.40575       .     A
C121  C106   1.48299       .     S
C121  C125   1.42188       .     A
C122  C90    1.40626       .     S
C122  C112   1.48275   1_655     A
C122  C124   1.42191       .     A
C123  C94    1.40575       .     S
C123  C114   1.48299       .     A
C123  C125   1.42188       .     S
C124  C120   1.42191       .     S
C124  C122   1.42191       .     S
C124  C129   1.49153       .     D
C125  C121   1.42188       .     S
C125  C123   1.42188       .     S
C125  C126   1.49153       .     S
C126  C125   1.49153       .     S
C126  O132   1.23488       .     S
C126  O134   1.23487       .     S
C127  C82    1.40058       .     S
C127  C90    1.40032       .     S
C127  N131   1.44803       .     D
C128  C83    1.40040       .     S
C128  C94    1.40040       .     S
C128  N130   1.44803       .     S
C129  C124   1.49153       .     S
C129  O133   1.23488       .     S
C129  O135   1.23488   1_655     S
N130  C84    1.37329       .     S
N130  C86    1.37329       .     S
N130  C128   1.44803       .     S
N131  C85    1.37324       .     S
N131  C87    1.37324       .     S
N131  C127   1.44803       .     S
O132  Zn0    4.93926       .     S
O132  C126   1.23488       .     S
O133  Zn3    3.55497   1_665     S
O133  C129   1.23488       .     S
O134  Zn0    4.12185       .     A
O134  C126   1.23487       .     A
O135  Zn3    2.76395   1_565     A
O135  C129   1.23488   1_455     S
O136  C84    1.34917       .     A
O137  C85    1.34913       .     S
O138  C86    1.34918       .     A
O139  C87    1.34913       .     S
H140  C170   1.11023       .     S
H141  C170   1.11189       .     S
H142  C171   1.11016       .     A
H143  C171   1.10922       .     S
H144  C172   1.11100       .     S
H145  C172   1.10885       .     S
H146  C172   1.11076       .     S
H147  C174   1.10561       .     D
H148  C174   1.10733       .     S
H149  C174   1.11042       .     S
H150  C173   1.10786       .     S
H151  C173   1.10736       .     S
H152  C176   1.10814       .     S
H153  C176   1.10800       .     S
H154  C176   1.11031       .     S
H155  C175   1.10761       .     S
H156  C175   1.10338       .     S
H157  C178   1.10623       .     S
H158  C178   1.10768       .     S
H159  C178   1.11038       .     D
H160  C177   1.10929       .     S
H161  C177   1.10530       .     S
C162  C169   1.47641       .     S
C162  O179   1.30455       .     S
C162  O180   1.29436       .     S
C163  C166   1.46190       .     S
C163  O181   1.30195       .     S
C163  O182   1.28818       .     S
C164  C165   1.39619       .     S
C164  C169   1.41415       .     S
C164  O183   1.38626       .     S
C165  C164   1.39619       .     S
C165  C166   1.41206       .     S
C165  C173   1.52834       .     S
C166  C163   1.46190       .     S
C166  C165   1.41206       .     S
C166  C167   1.43057       .     A
C167  C166   1.43057       .     A
C167  C168   1.42036       .     A
C167  C175   1.52930       .     S
C168  C167   1.42036       .     A
C168  C169   1.41865       .     S
C168  C177   1.53159       .     A
C169  C162   1.47641       .     S
C169  C164   1.41415       .     S
C169  C168   1.41865       .     S
C170  H140   1.11023       .     A
C170  H141   1.11189       .     S
C170  C171   1.53152       .     S
C170  O183   1.42192       .     S
C171  H142   1.11016       .     S
C171  H143   1.10922       .     D
C171  C170   1.53152       .     S
C171  C172   1.52614       .     S
C172  H144   1.11100       .     S
C172  H145   1.10885       .     S
C172  H146   1.11076       .     D
C172  C171   1.52614       .     S
C173  H150   1.10786       .     S
C173  H151   1.10736       .     S
C173  C165   1.52834       .     S
C173  C174   1.52823       .     S
C174  H147   1.10561       .     S
C174  H148   1.10733       .     A
C174  H149   1.11042       .     A
C174  C173   1.52823       .     A
C175  H155   1.10761       .     A
C175  H156   1.10338       .     A
C175  C167   1.52930       .     A
C175  C176   1.53256       .     S
C176  H152   1.10814       .     S
C176  H153   1.10800       .     A
C176  H154   1.11031       .     A
C176  C175   1.53256       .     S
C177  H160   1.10929       .     A
C177  H161   1.10530       .     S
C177  C168   1.53159       .     A
C177  C178   1.53165       .     A
C178  H157   1.10623       .     A
C178  H158   1.10768       .     A
C178  H159   1.11038       .     S
C178  C177   1.53165       .     A
O179  Zn48   3.39049   1_565     S
O179  C162   1.30455       .     S
O180  Zn49   5.10600   1_565     S
O180  C162   1.29436       .     A
O181  Zn1    4.35517       .     A
O181  C163   1.30195       .     S
O182  Zn0    4.32140       .     A
O182  C163   1.28818       .     S
O183  C164   1.38626       .     A
O183  C170   1.42192       .     S
H184  C230   1.08324       .     D
H185  C231   1.08323       .     D
H186  C232   1.08324       .     S
H187  C233   1.08324       .     S
H188  C216   1.08389       .     S
H189  C217   1.08404       .     S
H190  C224   1.08363       .     A
H191  C228   1.08404       .     A
H192  C235   1.08319       .     A
H193  C236   1.08221       .     A
H194  C237   1.08255       .     S
H195  C238   1.08237       .     S
H196  C239   1.08323       .     A
H197  C241   1.08316       .     A
H198  C242   1.08223       .     A
H199  C243   1.08228   1_655     S
H200  C244   1.08237       .     A
H201  C245   1.08322       .     S
H202  C212   1.08300       .     A
H203  C213   1.08237       .     A
H204  C214   1.08255       .     A
H205  C215   1.08228       .     S
H206  C247   1.08351       .     S
H207  C249   1.08322       .     D
H208  C250   1.08237       .     S
H209  C251   1.08227       .     D
H210  C252   1.08223       .     S
H211  C253   1.08316       .     S
C212  H202   1.08300       .     A
C212  C213   1.39819       .     A
C212  C246   1.40623       .     S
C213  H203   1.08237       .     S
C213  C212   1.39819       .     A
C213  C214   1.39730       .     A
C214  H204   1.08255       .     S
C214  C213   1.39730       .     S
C214  C215   1.39798       .     S
C215  H205   1.08228       .     A
C215  C214   1.39798       .     S
C215  C247   1.39853       .     A
C216  H188   1.08389       .     A
C216  C254   1.40574       .     A
C216  C261   1.40058       .     A
C217  H189   1.08404       .     A
C217  C255   1.40575       .     A
C217  C262   1.40040       .     A
C218  C225   1.41043       .     S
C218  N264   1.37329       .     S
C218  O270   1.34917       .     S
C219  C226   1.41043       .     A
C219  N265   1.37324       .     A
C219  O271   1.34913       .     S
C220  C222   1.41042       .     A
C220  N264   1.37329       .     S
C220  O272   1.34917       .     A
C221  C223   1.41043       .     A
C221  N265   1.37324       .     S
C221  O273   1.34913       .     A
C222  C220   1.41042       .     S
C222  C227   1.40807       .     S
C222  C230   1.40652       .     S
C223  C221   1.41043       .     D
C223  C229   1.40807       .     S
C223  C231   1.40647       .     D
C224  H190   1.08363       .     S
C224  C256   1.40626       .     S
C224  C261   1.40032       .     S
C225  C218   1.41043       .     S
C225  C227   1.40807       .     S
C225  C232   1.40652       .     S
C226  C219   1.41043       .     A
C226  C229   1.40807       .     A
C226  C233   1.40647       .     A
C227  C222   1.40807       .     A
C227  C225   1.40807       .     A
C227  C229   1.41903   1_556     A
C228  H191   1.08404       .     S
C228  C257   1.40575       .     S
C228  C262   1.40040       .     A
C229  C223   1.40807       .     A
C229  C226   1.40807       .     S
C229  C227   1.41903   1_554     A
C230  H184   1.08324       .     S
C230  C222   1.40652       .     A
C230  C233   1.39831   1_556     A
C231  H185   1.08323       .     A
C231  C223   1.40647       .     A
C231  C232   1.39831   1_554     S
C232  H186   1.08324       .     A
C232  C225   1.40652       .     S
C232  C231   1.39831   1_556     S
C233  H187   1.08324       .     S
C233  C226   1.40647       .     A
C233  C230   1.39831   1_554     A
C234  C235   1.40465       .     S
C234  C239   1.40633       .     A
C234  C254   1.48275       .     S
C235  H192   1.08319       .     A
C235  C234   1.40465       .     S
C235  C236   1.39853       .     D
C236  H193   1.08221       .     D
C236  C235   1.39853       .     S
C236  C237   1.39798       .     S
C237  H194   1.08255       .     S
C237  C236   1.39798       .     S
C237  C238   1.39730       .     A
C238  H195   1.08237       .     A
C238  C237   1.39730       .     A
C238  C239   1.39790       .     A
C239  H196   1.08323       .     S
C239  C234   1.40633       .     S
C239  C238   1.39790       .     A
C240  C241   1.40461       .     A
C240  C245   1.40624       .     A
C240  C255   1.48299       .     S
C241  H197   1.08316       .     A
C241  C240   1.40461       .     S
C241  C242   1.39876       .     A
C242  H198   1.08223       .     A
C242  C241   1.39876       .     A
C242  C243   1.39802       .     S
C243  H199   1.08228   1_455     S
C243  C242   1.39802       .     D
C243  C244   1.39716       .     S
C244  H200   1.08237       .     D
C244  C243   1.39716       .     S
C244  C245   1.39828       .     S
C245  H201   1.08322       .     A
C245  C240   1.40624       .     A
C245  C244   1.39828       .     S
C246  C212   1.40623       .     S
C246  C247   1.40465       .     A
C246  C256   1.48275       .     A
C247  H206   1.08351       .     S
C247  C215   1.39853       .     S
C247  C246   1.40465       .     S
C248  C249   1.40624       .     A
C248  C253   1.40461       .     S
C248  C257   1.48299       .     A
C249  H207   1.08322       .     A
C249  C248   1.40624       .     A
C249  C250   1.39828       .     A
C250  H208   1.08237       .     A
C250  C249   1.39828       .     A
C250  C251   1.39739       .     A
C251  H209   1.08227       .     S
C251  C250   1.39739       .     S
C251  C252   1.39795       .     S
C252  H210   1.08223       .     A
C252  C251   1.39795       .     A
C252  C253   1.39877       .     S
C253  H211   1.08316       .     A
C253  C248   1.40461       .     S
C253  C252   1.39877       .     A
C254  C216   1.40574       .     A
C254  C234   1.48275       .     S
C254  C258   1.42191       .     A
C255  C217   1.40575       .     S
C255  C240   1.48299       .     S
C255  C259   1.42188       .     S
C256  C224   1.40626       .     D
C256  C246   1.48275       .     S
C256  C258   1.42191       .     S
C257  C228   1.40575       .     S
C257  C248   1.48299       .     S
C257  C259   1.42188       .     S
C258  C254   1.42191       .     S
C258  C256   1.42191       .     S
C258  C263   1.49153       .     S
C259  C255   1.42188       .     D
C259  C257   1.42188       .     S
C259  C260   1.49153       .     S
C260  C259   1.49153       .     S
C260  O266   1.23488       .     S
C260  O268   1.23488       .     S
C261  C216   1.40058       .     S
C261  C224   1.40032       .     S
C261  N265   1.44803       .     S
C262  C217   1.40040       .     S
C262  C228   1.40040       .     S
C262  N264   1.44803       .     S
C263  C258   1.49153       .     S
C263  O267   1.23488       .     S
C263  O269   1.23488       .     S
N264  C218   1.37329       .     S
N264  C220   1.37329       .     S
N264  C262   1.44803       .     A
N265  C219   1.37324       .     A
N265  C221   1.37324       .     A
N265  C261   1.44803       .     S
O266  Zn2    2.47539       .     A
O266  C260   1.23488       .     S
O267  Zn1    3.88345       .     A
O267  C263   1.23488       .     S
O268  Zn2    4.49451       .     S
O268  C260   1.23488       .     S
O269  Zn1    5.94656       .     A
O269  C263   1.23488       .     S
O270  C218   1.34917       .     S
O271  C219   1.34913       .     S
O272  C220   1.34917       .     S
O273  C221   1.34913       .     D
H274  C304   1.11023       .     S
H275  C304   1.11189       .     S
H276  C305   1.11016       .     S
H277  C305   1.10922       .     S
H278  C306   1.11101       .     S
H279  C306   1.10885       .     S
H280  C306   1.11076       .     S
H281  C308   1.10561       .     S
H282  C308   1.10734       .     S
H283  C308   1.11042       .     S
H284  C307   1.10786       .     S
H285  C307   1.10736       .     D
H286  C310   1.10814       .     S
H287  C310   1.10800       .     S
H288  C310   1.11031       .     S
H289  C309   1.10761       .     S
H290  C309   1.10338       .     S
H291  C312   1.10623       .     S
H292  C312   1.10768       .     S
H293  C312   1.11038       .     S
H294  C311   1.10928       .     S
H295  C311   1.10530       .     S
C296  C303   1.47641       .     S
C296  O313   1.30455       .     S
C296  O314   1.29437       .     S
C297  C300   1.46189       .     S
C297  O315   1.30196       .     S
C297  O316   1.28818       .     S
C298  C299   1.39619       .     A
C298  C303   1.41415       .     A
C298  O317   1.38626       .     A
C299  C298   1.39619       .     S
C299  C300   1.41206       .     A
C299  C307   1.52834       .     S
C300  C297   1.46189       .     A
C300  C299   1.41206       .     S
C300  C301   1.43058       .     S
C301  C300   1.43058       .     S
C301  C302   1.42036       .     A
C301  C309   1.52930       .     S
C302  C301   1.42036       .     S
C302  C303   1.41865       .     S
C302  C311   1.53159       .     S
C303  C296   1.47641       .     D
C303  C298   1.41415       .     S
C303  C302   1.41865       .     S
C304  H274   1.11023       .     S
C304  H275   1.11189       .     S
C304  C305   1.53152       .     S
C304  O317   1.42192       .     S
C305  H276   1.11016       .     S
C305  H277   1.10922       .     S
C305  C304   1.53152       .     S
C305  C306   1.52614       .     S
C306  H278   1.11101       .     S
C306  H279   1.10885       .     D
C306  H280   1.11076       .     S
C306  C305   1.52614       .     S
C307  H284   1.10786       .     S
C307  H285   1.10736       .     S
C307  C299   1.52834       .     S
C307  C308   1.52823       .     S
C308  H281   1.10561       .     S
C308  H282   1.10734       .     S
C308  H283   1.11042       .     S
C308  C307   1.52823       .     S
C309  H289   1.10761       .     S
C309  H290   1.10338       .     S
C309  C301   1.52930       .     S
C309  C310   1.53256       .     S
C310  H286   1.10814       .     S
C310  H287   1.10800       .     S
C310  H288   1.11031       .     A
C310  C309   1.53256       .     A
C311  H294   1.10928       .     A
C311  H295   1.10530       .     S
C311  C302   1.53159       .     A
C311  C312   1.53165       .     S
C312  H291   1.10623       .     A
C312  H292   1.10768       .     S
C312  H293   1.11038       .     S
C312  C311   1.53165       .     S
O313  Zn49   2.80492       .     A
O313  C296   1.30455       .     S
O314  Zn48   3.65184       .     S
O314  C296   1.29437       .     S
O315  Zn1    4.34141       .     S
O315  C297   1.30196       .     D
O316  Zn0    2.22809       .     S
O316  C297   1.28818       .     S
O317  C298   1.38626       .     S
O317  C304   1.42192       .     S
H318  C348   1.11023       .     S
H319  C348   1.11189       .     S
H320  C349   1.11016       .     S
H321  C349   1.10922   1_545     S
H322  C350   1.11101       .     S
H323  C350   1.10886   1_565     S
H324  C350   1.11076   1_565     S
H325  C352   1.10561       .     D
H326  C352   1.10733       .     S
H327  C352   1.11042       .     S
H328  C351   1.10786       .     S
H329  C351   1.10736       .     S
H330  C354   1.10814       .     S
H331  C354   1.10800       .     S
H332  C354   1.11031       .     S
H333  C353   1.10761       .     S
H334  C353   1.10338       .     S
H335  C356   1.10623       .     S
H336  C356   1.10768       .     S
H337  C356   1.11038       .     S
H338  C355   1.10928       .     S
H339  C355   1.10530       .     S
C340  C347   1.47641       .     S
C340  O357   1.30455       .     S
C340  O358   1.29437       .     A
C341  C344   1.46190       .     A
C341  O359   1.30196   1_545     A
C341  O360   1.28818       .     S
C342  C343   1.39619       .     A
C342  C347   1.41415       .     S
C342  O361   1.38626   1_545     A
C343  C342   1.39619       .     S
C343  C344   1.41206       .     S
C343  C351   1.52834   1_545     S
C344  C341   1.46190       .     A
C344  C343   1.41206       .     S
C344  C345   1.43057       .     S
C345  C344   1.43057       .     S
C345  C346   1.42036       .     S
C345  C353   1.52930       .     D
C346  C345   1.42036       .     S
C346  C347   1.41865       .     S
C346  C355   1.53159       .     S
C347  C340   1.47641       .     S
C347  C342   1.41415       .     S
C347  C346   1.41865       .     S
C348  H318   1.11023       .     S
C348  H319   1.11189       .     S
C348  C349   1.53152   1_545     S
C348  O361   1.42192   1_545     S
C349  H320   1.11016       .     S
C349  H321   1.10922   1_565     S
C349  C348   1.53152   1_565     S
C349  C350   1.52614   1_565     S
C350  H322   1.11101       .     S
C350  H323   1.10885   1_545     S
C350  H324   1.11076   1_545     S
C350  C349   1.52614   1_545     S
C351  H328   1.10786       .     S
C351  H329   1.10736       .     S
C351  C343   1.52834   1_565     S
C351  C352   1.52823       .     S
C352  H325   1.10561       .     S
C352  H326   1.10733       .     S
C352  H327   1.11042       .     S
C352  C351   1.52823       .     S
C353  H333   1.10761       .     S
C353  H334   1.10338       .     S
C353  C345   1.52930       .     S
C353  C354   1.53256       .     S
C354  H330   1.10814       .     S
C354  H331   1.10800       .     S
C354  H332   1.11031       .     S
C354  C353   1.53256       .     S
C355  H338   1.10928       .     S
C355  H339   1.10530       .     S
C355  C346   1.53159       .     S
C355  C356   1.53165       .     S
C356  H335   1.10623       .     S
C356  H336   1.10768       .     S
C356  H337   1.11038       .     S
C356  C355   1.53165       .     S
O357  Zn3    3.51122       .     S
O357  C340   1.30455       .     S
O358  Zn3    2.64151       .     S
O358  C340   1.29437       .     S
O359  Zn48   3.82779   1_565     S
O359  C341   1.30195   1_565     S
O360  Zn49   2.49156       .     S
O360  C341   1.28818       .     S
O361  C342   1.38626   1_565     S
O361  C348   1.42192   1_565     S
