data_sample_3_relaxed_charged

_audit_creation_method RASPA-1.0
_audit_creation_date 2026-2-5
_audit_author_name ''

_cell_length_a    25.9492
_cell_length_b    37.3631
_cell_length_c    38.1796
_cell_angle_alpha 86.3697
_cell_angle_beta  81.2577
_cell_angle_gamma 76.0404
_cell_volume      35492.5

_symmetry_cell_setting          triclinic
_symmetry_space_group_name_Hall 'P 1'
_symmetry_space_group_name_H-M  'P 1'
_symmetry_Int_Tables_number     1

_symmetry_equiv_pos_as_xyz 'x,y,z'

loop_
_atom_site_label
_atom_site_type_symbol
_atom_site_fract_x
_atom_site_fract_y
_atom_site_fract_z
_atom_site_charge
Zn0      Zn     0.221996070000     0.285730750000     0.042540950000     1.12766    
Zn1      Zn     0.343129150000     0.262312470000     0.024585910000     1.19759    
H2       H      0.254477530000     0.392192700000     0.464997300000     0.041145   
H3       H      0.202795265000     0.434425235000     0.463270150000     0.050356   
H4       H      0.183473275000     0.355949750000     0.471330200000     0.010855   
H5       H      0.133052350000     0.398247800000     0.468837080000     0.065232   
H6       H      0.176845650000     0.411890150000     0.408064750000     0.05703    
H7       H      0.159621715000     0.367703080000     0.410527000000     0.050592   
H8       H      0.228331950000     0.369734525000     0.410531580000     0.048439   
H9       H      0.410751015000     0.136328010000     0.029113290000     0.026757   
H10      H      0.409800530000     0.100683780000     0.063307800000     0.033772   
H11      H      0.419071080000     0.179174950000     0.075817555000     0.059215   
H12      H      0.421579200000     0.141651700000     0.107867635000     0.057367   
H13      H      0.004226565000     0.105186770000     0.072449570000     0.005266   
H14      H      0.013210775000     0.149549850000     0.082900025000     0.017095   
H15      H      0.001461865000     0.141824720000     0.038931730000     0.034871   
H16      H      0.369384700000     0.393959670000     0.087750525000     0.144962   
H17      H      0.210963490000     0.152627530000     0.466163665000     0.184639   
H18      H      0.342246350000     0.453364900000     0.068297550000     0.062419   
H19      H      0.232361000000     0.093906930000     0.488553300000     0.033905   
H20      H      0.146475225000     0.025028280000     0.035029335000     0.016162   
H21      H      0.158471000000     0.483969570000     0.062409970000     0.01939    
H22      H      0.097152980000     0.495548250000     0.497651350000     0.105241   
H23      H      0.108827880000     0.454438715000     0.025460055000     0.062555   
H24      H      0.058192445000     0.490849200000     0.078064090000     0.023956   
H25      H      0.017932195000     0.493559550000     0.042957235000     0.020004   
H26      H      0.045759400000     0.031961830000     0.049869275000     0.038348   
H27      H      0.308562130000     0.044005250000     0.123192675000     0.025194   
H28      H      0.254273450000     0.072296910000     0.103404835000     0.022457   
H29      H      0.335005100000     0.100860720000     0.140023960000     0.051326   
H30      H      0.277375670000     0.128983400000     0.122402325000     0.054799   
H31      H      0.216632050000     0.099132620000     0.165278790000     0.050642   
H32      H      0.257627430000     0.120576485000     0.187395410000     0.04851    
H33      H      0.274309050000     0.071095995000     0.183447850000     0.050709   
H34      H      0.349316120000     0.335669875000     0.075555010000     0.043902   
H35      H      0.404912470000     0.362401070000     0.108436160000    -0.003231   
H36      H      0.390455125000     0.288954100000     0.031978410000    -0.17006    
H37      H      0.001186305000     0.345530800000     0.095965500000     0.030933   
H38      H      0.076264875000     0.251595080000     0.425405920000     0.016785   
H39      H      0.016156055000     0.263474075000     0.455484600000     0.025886   
H40      H      0.497473700000     0.253962130000     0.395916670000     0.005646   
H41      H      0.035691650000     0.206744400000     0.397925375000     0.049361   
H42      H      0.475051285000     0.221695410000     0.428556850000     0.009224   
H43      H      0.143299190000     0.223699630000     0.112412310000     0.007426   
H44      H      0.091658675000     0.261834680000     0.102704955000     0.007942   
H45      H      0.136748200000     0.275011570000     0.150899470000     0.063987   
H46      H      0.200144000000     0.266337575000     0.121849580000     0.022318   
H47      H      0.146431500000     0.305070150000     0.112681975000     0.037071   
H48      H      0.223154040000     0.253928125000     0.000268545000    -0.22034    
H49      H      0.272636800000     0.217022540000     0.478931450000    -0.068451   
H50      H      0.320964875000     0.204107060000     0.028861875000     0.073926   
H51      H      0.304125000000     0.253299150000     0.022336250000    -0.4648     
H52      H      0.266467200000     0.232017175000     0.057753130000    -0.050515   
H53      H      0.092826820000     0.148898020000     0.486745625000     0.038308   
H54      H      0.150050120000     0.122934020000     0.004723870000     0.024473   
H55      H      0.194580465000     0.105835630000     0.442076625000     0.07164    
H56      H      0.132958190000     0.090922500000     0.455113950000     0.077758   
H57      H      0.133538485000     0.131036835000     0.426195300000     0.080672   
C58      C      0.237210125000     0.456568270000     0.024146045000     0.055252   
C59      C      0.308896300000     0.094849715000     0.052915680000     0.055293   
C60      C      0.239057630000     0.418189230000     0.025305380000     0.126092   
C61      C      0.314437925000     0.131863860000     0.047376825000     0.125727   
C62      C      0.311456250000     0.406048030000     0.059042590000     0.200228   
C63      C      0.257486435000     0.141945065000     0.002728555000    -0.022052   
C64      C      0.312861770000     0.443887600000     0.056289100000    -0.132802   
C65      C      0.254933500000     0.104323475000     0.005564875000    -0.022607   
C66      C      0.275843770000     0.469467050000     0.038638500000     0.005706   
C67      C      0.280785750000     0.080411880000     0.030627975000    -0.023142   
C68      C      0.277177125000     0.008714395000     0.035881805000    -0.043553   
C69      C      0.278518750000     0.041314900000     0.033432230000     0.002949   
C70      C      0.211738990000     0.405681350000     0.474276065000    -0.084205   
C71      C      0.175812000000     0.384640575000     0.460179270000    -0.030502   
C72      C      0.185918690000     0.383483915000     0.419799000000    -0.155224   
C73      C      0.399003850000     0.130942685000     0.057896615000     0.057988   
C74      C      0.430959450000     0.148709460000     0.079254940000    -0.109676   
C75      C      0.491201430000     0.135428500000     0.067582950000    -0.006332   
C76      C      0.153105440000     0.494523950000     0.034787115000     0.091271   
C77      C      0.103182105000     0.484878780000     0.024935890000    -0.057045   
C78      C      0.053241035000     0.001391170000     0.050631325000    -0.060705   
C79      C      0.295403650000     0.071099005000     0.109523825000     0.042971   
C80      C      0.293708325000     0.101763865000     0.134807400000    -0.070918   
C81      C      0.258318350000     0.097773435000     0.169898550000    -0.13784    
C82      C      0.499841650000     0.253646300000     0.021190805000    -0.07355    
C83      C      0.059127695000     0.295339750000     0.049858505000    -0.100979   
C84      C      0.416450500000     0.299084350000     0.046321950000     0.023696   
C85      C      0.478281380000     0.332796635000     0.081121170000     0.05807    
C86      C      0.392185850000     0.326908230000     0.070228690000    -0.077217   
C87      C      0.423151050000     0.342477000000     0.088561735000     0.132612   
C88      C      0.003470875000     0.305364250000     0.056648765000     0.008516   
C89      C      0.472796700000     0.285691080000     0.041093780000     0.010852   
C90      C      0.084125920000     0.260408900000     0.035662765000     0.012682   
C91      C      0.056405015000     0.245358320000     0.014025020000    -0.03235    
C92      C      0.136675060000     0.240885350000     0.041034100000     0.085984   
C93      C      0.085950160000     0.219181865000     0.488678400000     0.182628   
C94      C      0.164802360000     0.212981490000     0.017588490000     0.008942   
C95      C      0.137709470000     0.199376300000     0.494165870000    -0.383964   
C96      C      0.090585140000     0.323743435000     0.046612130000     0.336158   
C97      C      0.474549325000     0.221933215000     0.020728815000     0.13456    
C98      C      0.043053195000     0.240718300000     0.439962050000     0.046365   
C99      C      0.010849575000     0.230082300000     0.413915400000    -0.05989    
C100     C      0.135698750000     0.251672330000     0.100682070000     0.106984   
C101     C      0.156021580000     0.276101975000     0.122933700000    -0.212721   
C102     C      0.248444275000     0.225777450000     0.004744330000     0.52006    
C103     C      0.287191000000     0.228874700000     0.030104695000    -0.221847   
C104     C      0.137123900000     0.139764900000     0.481253450000     0.14403    
C105     C      0.150489100000     0.115334735000     0.449156400000    -0.215202   
N106     N      0.275125750000     0.393871550000     0.043266675000    -0.177439   
N107     N      0.287079900000     0.154970275000     0.023541815000    -0.089563   
O108     O      0.343650650000     0.145957400000     0.068168015000    -0.216695   
O109     O      0.345971400000     0.380977800000     0.077828735000    -0.329918   
O110     O      0.230400010000     0.166070490000     0.479172915000    -0.24291    
O111     O      0.197583990000     0.481186050000     0.008683360000    -0.255324   
O112     O      0.333395125000     0.072570560000     0.078950525000    -0.195007   
O113     O      0.200739830000     0.405439850000     0.011639525000    -0.215469   
O114     O      0.140266835000     0.311752150000     0.036781615000    -0.436675   
O115     O      0.005297635000     0.189201980000     0.016447605000    -0.237333   
O116     O      0.067406280000     0.358662785000     0.045682145000    -0.250909   
O117     O      0.424736025000     0.227011740000     0.032725395000    -0.363753   
O118     O      0.063297475000     0.209420070000     0.460956930000    -0.210253   
O119     O      0.164243350000     0.250722675000     0.066007620000    -0.347703   
O120     O      0.219252720000     0.198752350000     0.017548180000    -0.153546   
O121     O      0.164305030000     0.168777065000     0.474488170000    -0.127121   
Zn0      Zn     0.221996070000     0.285730750000     0.542540950000     1.12766    
Zn1      Zn     0.343129150000     0.262312470000     0.524585910000     1.19759    
H2       H      0.254477530000     0.392192700000     0.964997300000     0.041145   
H3       H      0.202795265000     0.434425235000     0.963270150000     0.050356   
H4       H      0.183473275000     0.355949750000     0.971330200000     0.010855   
H5       H      0.133052350000     0.398247800000     0.968837080000     0.065232   
H6       H      0.176845650000     0.411890150000     0.908064750000     0.05703    
H7       H      0.159621715000     0.367703080000     0.910527000000     0.050592   
H8       H      0.228331950000     0.369734525000     0.910531580000     0.048439   
H9       H      0.410751015000     0.136328010000     0.529113290000     0.026757   
H10      H      0.409800530000     0.100683780000     0.563307800000     0.033772   
H11      H      0.419071080000     0.179174950000     0.575817555000     0.059215   
H12      H      0.421579200000     0.141651700000     0.607867635000     0.057367   
H13      H      0.004226565000     0.105186770000     0.572449570000     0.005266   
H14      H      0.013210775000     0.149549850000     0.582900025000     0.017095   
H15      H      0.001461865000     0.141824720000     0.538931730000     0.034871   
H16      H      0.369384700000     0.393959670000     0.587750525000     0.144962   
H17      H      0.210963490000     0.152627530000     0.966163665000     0.184639   
H18      H      0.342246350000     0.453364900000     0.568297550000     0.062419   
H19      H      0.232361000000     0.093906930000     0.988553300000     0.033905   
H20      H      0.146475225000     0.025028280000     0.535029335000     0.016162   
H21      H      0.158471000000     0.483969570000     0.562409970000     0.01939    
H22      H      0.097152980000     0.495548250000     0.997651350000     0.105241   
H23      H      0.108827880000     0.454438715000     0.525460055000     0.062555   
H24      H      0.058192445000     0.490849200000     0.578064090000     0.023956   
H25      H      0.017932195000     0.493559550000     0.542957235000     0.020004   
H26      H      0.045759400000     0.031961830000     0.549869275000     0.038348   
H27      H      0.308562130000     0.044005250000     0.623192675000     0.025194   
H28      H      0.254273450000     0.072296910000     0.603404835000     0.022457   
H29      H      0.335005100000     0.100860720000     0.640023960000     0.051326   
H30      H      0.277375670000     0.128983400000     0.622402325000     0.054799   
H31      H      0.216632050000     0.099132620000     0.665278790000     0.050642   
H32      H      0.257627430000     0.120576485000     0.687395410000     0.04851    
H33      H      0.274309050000     0.071095995000     0.683447850000     0.050709   
H34      H      0.349316120000     0.335669875000     0.575555010000     0.043902   
H35      H      0.404912470000     0.362401070000     0.608436160000    -0.003231   
H36      H      0.390455125000     0.288954100000     0.531978410000    -0.17006    
H37      H      0.001186305000     0.345530800000     0.595965500000     0.030933   
H38      H      0.076264875000     0.251595080000     0.925405920000     0.016785   
H39      H      0.016156055000     0.263474075000     0.955484600000     0.025886   
H40      H      0.497473700000     0.253962130000     0.895916670000     0.005646   
H41      H      0.035691650000     0.206744400000     0.897925375000     0.049361   
H42      H      0.475051285000     0.221695410000     0.928556850000     0.009224   
H43      H      0.143299190000     0.223699630000     0.612412310000     0.007426   
H44      H      0.091658675000     0.261834680000     0.602704955000     0.007942   
H45      H      0.136748200000     0.275011570000     0.650899470000     0.063987   
H46      H      0.200144000000     0.266337575000     0.621849580000     0.022318   
H47      H      0.146431500000     0.305070150000     0.612681975000     0.037071   
H48      H      0.223154040000     0.253928125000     0.500268545000    -0.22034    
H49      H      0.272636800000     0.217022540000     0.978931450000    -0.068451   
H50      H      0.320964875000     0.204107060000     0.528861875000     0.073926   
H51      H      0.304125000000     0.253299150000     0.522336250000    -0.4648     
H52      H      0.266467200000     0.232017175000     0.557753130000    -0.050515   
H53      H      0.092826820000     0.148898020000     0.986745625000     0.038308   
H54      H      0.150050120000     0.122934020000     0.504723870000     0.024473   
H55      H      0.194580465000     0.105835630000     0.942076625000     0.07164    
H56      H      0.132958190000     0.090922500000     0.955113950000     0.077758   
H57      H      0.133538485000     0.131036835000     0.926195300000     0.080672   
C58      C      0.237210125000     0.456568270000     0.524146045000     0.055252   
C59      C      0.308896300000     0.094849715000     0.552915680000     0.055293   
C60      C      0.239057630000     0.418189230000     0.525305380000     0.126092   
C61      C      0.314437925000     0.131863860000     0.547376825000     0.125727   
C62      C      0.311456250000     0.406048030000     0.559042590000     0.200228   
C63      C      0.257486435000     0.141945065000     0.502728555000    -0.022052   
C64      C      0.312861770000     0.443887600000     0.556289100000    -0.132802   
C65      C      0.254933500000     0.104323475000     0.505564875000    -0.022607   
C66      C      0.275843770000     0.469467050000     0.538638500000     0.005706   
C67      C      0.280785750000     0.080411880000     0.530627975000    -0.023142   
C68      C      0.277177125000     0.008714395000     0.535881805000    -0.043553   
C69      C      0.278518750000     0.041314900000     0.533432230000     0.002949   
C70      C      0.211738990000     0.405681350000     0.974276065000    -0.084205   
C71      C      0.175812000000     0.384640575000     0.960179270000    -0.030502   
C72      C      0.185918690000     0.383483915000     0.919799000000    -0.155224   
C73      C      0.399003850000     0.130942685000     0.557896615000     0.057988   
C74      C      0.430959450000     0.148709460000     0.579254940000    -0.109676   
C75      C      0.491201430000     0.135428500000     0.567582950000    -0.006332   
C76      C      0.153105440000     0.494523950000     0.534787115000     0.091271   
C77      C      0.103182105000     0.484878780000     0.524935890000    -0.057045   
C78      C      0.053241035000     0.001391170000     0.550631325000    -0.060705   
C79      C      0.295403650000     0.071099005000     0.609523825000     0.042971   
C80      C      0.293708325000     0.101763865000     0.634807400000    -0.070918   
C81      C      0.258318350000     0.097773435000     0.669898550000    -0.13784    
C82      C      0.499841650000     0.253646300000     0.521190805000    -0.07355    
C83      C      0.059127695000     0.295339750000     0.549858505000    -0.100979   
C84      C      0.416450500000     0.299084350000     0.546321950000     0.023696   
C85      C      0.478281380000     0.332796635000     0.581121170000     0.05807    
C86      C      0.392185850000     0.326908230000     0.570228690000    -0.077217   
C87      C      0.423151050000     0.342477000000     0.588561735000     0.132612   
C88      C      0.003470875000     0.305364250000     0.556648765000     0.008516   
C89      C      0.472796700000     0.285691080000     0.541093780000     0.010852   
C90      C      0.084125920000     0.260408900000     0.535662765000     0.012682   
C91      C      0.056405015000     0.245358320000     0.514025020000    -0.03235    
C92      C      0.136675060000     0.240885350000     0.541034100000     0.085984   
C93      C      0.085950160000     0.219181865000     0.988678400000     0.182628   
C94      C      0.164802360000     0.212981490000     0.517588490000     0.008942   
C95      C      0.137709470000     0.199376300000     0.994165870000    -0.383964   
C96      C      0.090585140000     0.323743435000     0.546612130000     0.336158   
C97      C      0.474549325000     0.221933215000     0.520728815000     0.13456    
C98      C      0.043053195000     0.240718300000     0.939962050000     0.046365   
C99      C      0.010849575000     0.230082300000     0.913915400000    -0.05989    
C100     C      0.135698750000     0.251672330000     0.600682070000     0.106984   
C101     C      0.156021580000     0.276101975000     0.622933700000    -0.212721   
C102     C      0.248444275000     0.225777450000     0.504744330000     0.52006    
C103     C      0.287191000000     0.228874700000     0.530104695000    -0.221847   
C104     C      0.137123900000     0.139764900000     0.981253450000     0.14403    
C105     C      0.150489100000     0.115334735000     0.949156400000    -0.215202   
N106     N      0.275125750000     0.393871550000     0.543266675000    -0.177439   
N107     N      0.287079900000     0.154970275000     0.523541815000    -0.089563   
O108     O      0.343650650000     0.145957400000     0.568168015000    -0.216695   
O109     O      0.345971400000     0.380977800000     0.577828735000    -0.329918   
O110     O      0.230400010000     0.166070490000     0.979172915000    -0.24291    
O111     O      0.197583990000     0.481186050000     0.508683360000    -0.255324   
O112     O      0.333395125000     0.072570560000     0.578950525000    -0.195007   
O113     O      0.200739830000     0.405439850000     0.511639525000    -0.215469   
O114     O      0.140266835000     0.311752150000     0.536781615000    -0.436675   
O115     O      0.005297635000     0.189201980000     0.516447605000    -0.237333   
O116     O      0.067406280000     0.358662785000     0.545682145000    -0.250909   
O117     O      0.424736025000     0.227011740000     0.532725395000    -0.363753   
O118     O      0.063297475000     0.209420070000     0.960956930000    -0.210253   
O119     O      0.164243350000     0.250722675000     0.566007620000    -0.347703   
O120     O      0.219252720000     0.198752350000     0.517548180000    -0.153546   
O121     O      0.164305030000     0.168777065000     0.974488170000    -0.127121   
Zn0      Zn     0.221996070000     0.785730750000     0.042540950000     1.12766    
Zn1      Zn     0.343129150000     0.762312470000     0.024585910000     1.19759    
H2       H      0.254477530000     0.892192700000     0.464997300000     0.041145   
H3       H      0.202795265000     0.934425235000     0.463270150000     0.050356   
H4       H      0.183473275000     0.855949750000     0.471330200000     0.010855   
H5       H      0.133052350000     0.898247800000     0.468837080000     0.065232   
H6       H      0.176845650000     0.911890150000     0.408064750000     0.05703    
H7       H      0.159621715000     0.867703080000     0.410527000000     0.050592   
H8       H      0.228331950000     0.869734525000     0.410531580000     0.048439   
H9       H      0.410751015000     0.636328010000     0.029113290000     0.026757   
H10      H      0.409800530000     0.600683780000     0.063307800000     0.033772   
H11      H      0.419071080000     0.679174950000     0.075817555000     0.059215   
H12      H      0.421579200000     0.641651700000     0.107867635000     0.057367   
H13      H      0.004226565000     0.605186770000     0.072449570000     0.005266   
H14      H      0.013210775000     0.649549850000     0.082900025000     0.017095   
H15      H      0.001461865000     0.641824720000     0.038931730000     0.034871   
H16      H      0.369384700000     0.893959670000     0.087750525000     0.144962   
H17      H      0.210963490000     0.652627530000     0.466163665000     0.184639   
H18      H      0.342246350000     0.953364900000     0.068297550000     0.062419   
H19      H      0.232361000000     0.593906930000     0.488553300000     0.033905   
H20      H      0.146475225000     0.525028280000     0.035029335000     0.016162   
H21      H      0.158471000000     0.983969570000     0.062409970000     0.01939    
H22      H      0.097152980000     0.995548250000     0.497651350000     0.105241   
H23      H      0.108827880000     0.954438715000     0.025460055000     0.062555   
H24      H      0.058192445000     0.990849200000     0.078064090000     0.023956   
H25      H      0.017932195000     0.993559550000     0.042957235000     0.020004   
H26      H      0.045759400000     0.531961830000     0.049869275000     0.038348   
H27      H      0.308562130000     0.544005250000     0.123192675000     0.025194   
H28      H      0.254273450000     0.572296910000     0.103404835000     0.022457   
H29      H      0.335005100000     0.600860720000     0.140023960000     0.051326   
H30      H      0.277375670000     0.628983400000     0.122402325000     0.054799   
H31      H      0.216632050000     0.599132620000     0.165278790000     0.050642   
H32      H      0.257627430000     0.620576485000     0.187395410000     0.04851    
H33      H      0.274309050000     0.571095995000     0.183447850000     0.050709   
H34      H      0.349316120000     0.835669875000     0.075555010000     0.043902   
H35      H      0.404912470000     0.862401070000     0.108436160000    -0.003231   
H36      H      0.390455125000     0.788954100000     0.031978410000    -0.17006    
H37      H      0.001186305000     0.845530800000     0.095965500000     0.030933   
H38      H      0.076264875000     0.751595080000     0.425405920000     0.016785   
H39      H      0.016156055000     0.763474075000     0.455484600000     0.025886   
H40      H      0.497473700000     0.753962130000     0.395916670000     0.005646   
H41      H      0.035691650000     0.706744400000     0.397925375000     0.049361   
H42      H      0.475051285000     0.721695410000     0.428556850000     0.009224   
H43      H      0.143299190000     0.723699630000     0.112412310000     0.007426   
H44      H      0.091658675000     0.761834680000     0.102704955000     0.007942   
H45      H      0.136748200000     0.775011570000     0.150899470000     0.063987   
H46      H      0.200144000000     0.766337575000     0.121849580000     0.022318   
H47      H      0.146431500000     0.805070150000     0.112681975000     0.037071   
H48      H      0.223154040000     0.753928125000     0.000268545000    -0.22034    
H49      H      0.272636800000     0.717022540000     0.478931450000    -0.068451   
H50      H      0.320964875000     0.704107060000     0.028861875000     0.073926   
H51      H      0.304125000000     0.753299150000     0.022336250000    -0.4648     
H52      H      0.266467200000     0.732017175000     0.057753130000    -0.050515   
H53      H      0.092826820000     0.648898020000     0.486745625000     0.038308   
H54      H      0.150050120000     0.622934020000     0.004723870000     0.024473   
H55      H      0.194580465000     0.605835630000     0.442076625000     0.07164    
H56      H      0.132958190000     0.590922500000     0.455113950000     0.077758   
H57      H      0.133538485000     0.631036835000     0.426195300000     0.080672   
C58      C      0.237210125000     0.956568270000     0.024146045000     0.055252   
C59      C      0.308896300000     0.594849715000     0.052915680000     0.055293   
C60      C      0.239057630000     0.918189230000     0.025305380000     0.126092   
C61      C      0.314437925000     0.631863860000     0.047376825000     0.125727   
C62      C      0.311456250000     0.906048030000     0.059042590000     0.200228   
C63      C      0.257486435000     0.641945065000     0.002728555000    -0.022052   
C64      C      0.312861770000     0.943887600000     0.056289100000    -0.132802   
C65      C      0.254933500000     0.604323475000     0.005564875000    -0.022607   
C66      C      0.275843770000     0.969467050000     0.038638500000     0.005706   
C67      C      0.280785750000     0.580411880000     0.030627975000    -0.023142   
C68      C      0.277177125000     0.508714395000     0.035881805000    -0.043553   
C69      C      0.278518750000     0.541314900000     0.033432230000     0.002949   
C70      C      0.211738990000     0.905681350000     0.474276065000    -0.084205   
C71      C      0.175812000000     0.884640575000     0.460179270000    -0.030502   
C72      C      0.185918690000     0.883483915000     0.419799000000    -0.155224   
C73      C      0.399003850000     0.630942685000     0.057896615000     0.057988   
C74      C      0.430959450000     0.648709460000     0.079254940000    -0.109676   
C75      C      0.491201430000     0.635428500000     0.067582950000    -0.006332   
C76      C      0.153105440000     0.994523950000     0.034787115000     0.091271   
C77      C      0.103182105000     0.984878780000     0.024935890000    -0.057045   
C78      C      0.053241035000     0.501391170000     0.050631325000    -0.060705   
C79      C      0.295403650000     0.571099005000     0.109523825000     0.042971   
C80      C      0.293708325000     0.601763865000     0.134807400000    -0.070918   
C81      C      0.258318350000     0.597773435000     0.169898550000    -0.13784    
C82      C      0.499841650000     0.753646300000     0.021190805000    -0.07355    
C83      C      0.059127695000     0.795339750000     0.049858505000    -0.100979   
C84      C      0.416450500000     0.799084350000     0.046321950000     0.023696   
C85      C      0.478281380000     0.832796635000     0.081121170000     0.05807    
C86      C      0.392185850000     0.826908230000     0.070228690000    -0.077217   
C87      C      0.423151050000     0.842477000000     0.088561735000     0.132612   
C88      C      0.003470875000     0.805364250000     0.056648765000     0.008516   
C89      C      0.472796700000     0.785691080000     0.041093780000     0.010852   
C90      C      0.084125920000     0.760408900000     0.035662765000     0.012682   
C91      C      0.056405015000     0.745358320000     0.014025020000    -0.03235    
C92      C      0.136675060000     0.740885350000     0.041034100000     0.085984   
C93      C      0.085950160000     0.719181865000     0.488678400000     0.182628   
C94      C      0.164802360000     0.712981490000     0.017588490000     0.008942   
C95      C      0.137709470000     0.699376300000     0.494165870000    -0.383964   
C96      C      0.090585140000     0.823743435000     0.046612130000     0.336158   
C97      C      0.474549325000     0.721933215000     0.020728815000     0.13456    
C98      C      0.043053195000     0.740718300000     0.439962050000     0.046365   
C99      C      0.010849575000     0.730082300000     0.413915400000    -0.05989    
C100     C      0.135698750000     0.751672330000     0.100682070000     0.106984   
C101     C      0.156021580000     0.776101975000     0.122933700000    -0.212721   
C102     C      0.248444275000     0.725777450000     0.004744330000     0.52006    
C103     C      0.287191000000     0.728874700000     0.030104695000    -0.221847   
C104     C      0.137123900000     0.639764900000     0.481253450000     0.14403    
C105     C      0.150489100000     0.615334735000     0.449156400000    -0.215202   
N106     N      0.275125750000     0.893871550000     0.043266675000    -0.177439   
N107     N      0.287079900000     0.654970275000     0.023541815000    -0.089563   
O108     O      0.343650650000     0.645957400000     0.068168015000    -0.216695   
O109     O      0.345971400000     0.880977800000     0.077828735000    -0.329918   
O110     O      0.230400010000     0.666070490000     0.479172915000    -0.24291    
O111     O      0.197583990000     0.981186050000     0.008683360000    -0.255324   
O112     O      0.333395125000     0.572570560000     0.078950525000    -0.195007   
O113     O      0.200739830000     0.905439850000     0.011639525000    -0.215469   
O114     O      0.140266835000     0.811752150000     0.036781615000    -0.436675   
O115     O      0.005297635000     0.689201980000     0.016447605000    -0.237333   
O116     O      0.067406280000     0.858662785000     0.045682145000    -0.250909   
O117     O      0.424736025000     0.727011740000     0.032725395000    -0.363753   
O118     O      0.063297475000     0.709420070000     0.460956930000    -0.210253   
O119     O      0.164243350000     0.750722675000     0.066007620000    -0.347703   
O120     O      0.219252720000     0.698752350000     0.017548180000    -0.153546   
O121     O      0.164305030000     0.668777065000     0.474488170000    -0.127121   
Zn0      Zn     0.221996070000     0.785730750000     0.542540950000     1.12766    
Zn1      Zn     0.343129150000     0.762312470000     0.524585910000     1.19759    
H2       H      0.254477530000     0.892192700000     0.964997300000     0.041145   
H3       H      0.202795265000     0.934425235000     0.963270150000     0.050356   
H4       H      0.183473275000     0.855949750000     0.971330200000     0.010855   
H5       H      0.133052350000     0.898247800000     0.968837080000     0.065232   
H6       H      0.176845650000     0.911890150000     0.908064750000     0.05703    
H7       H      0.159621715000     0.867703080000     0.910527000000     0.050592   
H8       H      0.228331950000     0.869734525000     0.910531580000     0.048439   
H9       H      0.410751015000     0.636328010000     0.529113290000     0.026757   
H10      H      0.409800530000     0.600683780000     0.563307800000     0.033772   
H11      H      0.419071080000     0.679174950000     0.575817555000     0.059215   
H12      H      0.421579200000     0.641651700000     0.607867635000     0.057367   
H13      H      0.004226565000     0.605186770000     0.572449570000     0.005266   
H14      H      0.013210775000     0.649549850000     0.582900025000     0.017095   
H15      H      0.001461865000     0.641824720000     0.538931730000     0.034871   
H16      H      0.369384700000     0.893959670000     0.587750525000     0.144962   
H17      H      0.210963490000     0.652627530000     0.966163665000     0.184639   
H18      H      0.342246350000     0.953364900000     0.568297550000     0.062419   
H19      H      0.232361000000     0.593906930000     0.988553300000     0.033905   
H20      H      0.146475225000     0.525028280000     0.535029335000     0.016162   
H21      H      0.158471000000     0.983969570000     0.562409970000     0.01939    
H22      H      0.097152980000     0.995548250000     0.997651350000     0.105241   
H23      H      0.108827880000     0.954438715000     0.525460055000     0.062555   
H24      H      0.058192445000     0.990849200000     0.578064090000     0.023956   
H25      H      0.017932195000     0.993559550000     0.542957235000     0.020004   
H26      H      0.045759400000     0.531961830000     0.549869275000     0.038348   
H27      H      0.308562130000     0.544005250000     0.623192675000     0.025194   
H28      H      0.254273450000     0.572296910000     0.603404835000     0.022457   
H29      H      0.335005100000     0.600860720000     0.640023960000     0.051326   
H30      H      0.277375670000     0.628983400000     0.622402325000     0.054799   
H31      H      0.216632050000     0.599132620000     0.665278790000     0.050642   
H32      H      0.257627430000     0.620576485000     0.687395410000     0.04851    
H33      H      0.274309050000     0.571095995000     0.683447850000     0.050709   
H34      H      0.349316120000     0.835669875000     0.575555010000     0.043902   
H35      H      0.404912470000     0.862401070000     0.608436160000    -0.003231   
H36      H      0.390455125000     0.788954100000     0.531978410000    -0.17006    
H37      H      0.001186305000     0.845530800000     0.595965500000     0.030933   
H38      H      0.076264875000     0.751595080000     0.925405920000     0.016785   
H39      H      0.016156055000     0.763474075000     0.955484600000     0.025886   
H40      H      0.497473700000     0.753962130000     0.895916670000     0.005646   
H41      H      0.035691650000     0.706744400000     0.897925375000     0.049361   
H42      H      0.475051285000     0.721695410000     0.928556850000     0.009224   
H43      H      0.143299190000     0.723699630000     0.612412310000     0.007426   
H44      H      0.091658675000     0.761834680000     0.602704955000     0.007942   
H45      H      0.136748200000     0.775011570000     0.650899470000     0.063987   
H46      H      0.200144000000     0.766337575000     0.621849580000     0.022318   
H47      H      0.146431500000     0.805070150000     0.612681975000     0.037071   
H48      H      0.223154040000     0.753928125000     0.500268545000    -0.22034    
H49      H      0.272636800000     0.717022540000     0.978931450000    -0.068451   
H50      H      0.320964875000     0.704107060000     0.528861875000     0.073926   
H51      H      0.304125000000     0.753299150000     0.522336250000    -0.4648     
H52      H      0.266467200000     0.732017175000     0.557753130000    -0.050515   
H53      H      0.092826820000     0.648898020000     0.986745625000     0.038308   
H54      H      0.150050120000     0.622934020000     0.504723870000     0.024473   
H55      H      0.194580465000     0.605835630000     0.942076625000     0.07164    
H56      H      0.132958190000     0.590922500000     0.955113950000     0.077758   
H57      H      0.133538485000     0.631036835000     0.926195300000     0.080672   
C58      C      0.237210125000     0.956568270000     0.524146045000     0.055252   
C59      C      0.308896300000     0.594849715000     0.552915680000     0.055293   
C60      C      0.239057630000     0.918189230000     0.525305380000     0.126092   
C61      C      0.314437925000     0.631863860000     0.547376825000     0.125727   
C62      C      0.311456250000     0.906048030000     0.559042590000     0.200228   
C63      C      0.257486435000     0.641945065000     0.502728555000    -0.022052   
C64      C      0.312861770000     0.943887600000     0.556289100000    -0.132802   
C65      C      0.254933500000     0.604323475000     0.505564875000    -0.022607   
C66      C      0.275843770000     0.969467050000     0.538638500000     0.005706   
C67      C      0.280785750000     0.580411880000     0.530627975000    -0.023142   
C68      C      0.277177125000     0.508714395000     0.535881805000    -0.043553   
C69      C      0.278518750000     0.541314900000     0.533432230000     0.002949   
C70      C      0.211738990000     0.905681350000     0.974276065000    -0.084205   
C71      C      0.175812000000     0.884640575000     0.960179270000    -0.030502   
C72      C      0.185918690000     0.883483915000     0.919799000000    -0.155224   
C73      C      0.399003850000     0.630942685000     0.557896615000     0.057988   
C74      C      0.430959450000     0.648709460000     0.579254940000    -0.109676   
C75      C      0.491201430000     0.635428500000     0.567582950000    -0.006332   
C76      C      0.153105440000     0.994523950000     0.534787115000     0.091271   
C77      C      0.103182105000     0.984878780000     0.524935890000    -0.057045   
C78      C      0.053241035000     0.501391170000     0.550631325000    -0.060705   
C79      C      0.295403650000     0.571099005000     0.609523825000     0.042971   
C80      C      0.293708325000     0.601763865000     0.634807400000    -0.070918   
C81      C      0.258318350000     0.597773435000     0.669898550000    -0.13784    
C82      C      0.499841650000     0.753646300000     0.521190805000    -0.07355    
C83      C      0.059127695000     0.795339750000     0.549858505000    -0.100979   
C84      C      0.416450500000     0.799084350000     0.546321950000     0.023696   
C85      C      0.478281380000     0.832796635000     0.581121170000     0.05807    
C86      C      0.392185850000     0.826908230000     0.570228690000    -0.077217   
C87      C      0.423151050000     0.842477000000     0.588561735000     0.132612   
C88      C      0.003470875000     0.805364250000     0.556648765000     0.008516   
C89      C      0.472796700000     0.785691080000     0.541093780000     0.010852   
C90      C      0.084125920000     0.760408900000     0.535662765000     0.012682   
C91      C      0.056405015000     0.745358320000     0.514025020000    -0.03235    
C92      C      0.136675060000     0.740885350000     0.541034100000     0.085984   
C93      C      0.085950160000     0.719181865000     0.988678400000     0.182628   
C94      C      0.164802360000     0.712981490000     0.517588490000     0.008942   
C95      C      0.137709470000     0.699376300000     0.994165870000    -0.383964   
C96      C      0.090585140000     0.823743435000     0.546612130000     0.336158   
C97      C      0.474549325000     0.721933215000     0.520728815000     0.13456    
C98      C      0.043053195000     0.740718300000     0.939962050000     0.046365   
C99      C      0.010849575000     0.730082300000     0.913915400000    -0.05989    
C100     C      0.135698750000     0.751672330000     0.600682070000     0.106984   
C101     C      0.156021580000     0.776101975000     0.622933700000    -0.212721   
C102     C      0.248444275000     0.725777450000     0.504744330000     0.52006    
C103     C      0.287191000000     0.728874700000     0.530104695000    -0.221847   
C104     C      0.137123900000     0.639764900000     0.981253450000     0.14403    
C105     C      0.150489100000     0.615334735000     0.949156400000    -0.215202   
N106     N      0.275125750000     0.893871550000     0.543266675000    -0.177439   
N107     N      0.287079900000     0.654970275000     0.523541815000    -0.089563   
O108     O      0.343650650000     0.645957400000     0.568168015000    -0.216695   
O109     O      0.345971400000     0.880977800000     0.577828735000    -0.329918   
O110     O      0.230400010000     0.666070490000     0.979172915000    -0.24291    
O111     O      0.197583990000     0.981186050000     0.508683360000    -0.255324   
O112     O      0.333395125000     0.572570560000     0.578950525000    -0.195007   
O113     O      0.200739830000     0.905439850000     0.511639525000    -0.215469   
O114     O      0.140266835000     0.811752150000     0.536781615000    -0.436675   
O115     O      0.005297635000     0.689201980000     0.516447605000    -0.237333   
O116     O      0.067406280000     0.858662785000     0.545682145000    -0.250909   
O117     O      0.424736025000     0.727011740000     0.532725395000    -0.363753   
O118     O      0.063297475000     0.709420070000     0.960956930000    -0.210253   
O119     O      0.164243350000     0.750722675000     0.566007620000    -0.347703   
O120     O      0.219252720000     0.698752350000     0.517548180000    -0.153546   
O121     O      0.164305030000     0.668777065000     0.974488170000    -0.127121   
Zn0      Zn     0.721996070000     0.285730750000     0.042540950000     1.12766    
Zn1      Zn     0.843129150000     0.262312470000     0.024585910000     1.19759    
H2       H      0.754477530000     0.392192700000     0.464997300000     0.041145   
H3       H      0.702795265000     0.434425235000     0.463270150000     0.050356   
H4       H      0.683473275000     0.355949750000     0.471330200000     0.010855   
H5       H      0.633052350000     0.398247800000     0.468837080000     0.065232   
H6       H      0.676845650000     0.411890150000     0.408064750000     0.05703    
H7       H      0.659621715000     0.367703080000     0.410527000000     0.050592   
H8       H      0.728331950000     0.369734525000     0.410531580000     0.048439   
H9       H      0.910751015000     0.136328010000     0.029113290000     0.026757   
H10      H      0.909800530000     0.100683780000     0.063307800000     0.033772   
H11      H      0.919071080000     0.179174950000     0.075817555000     0.059215   
H12      H      0.921579200000     0.141651700000     0.107867635000     0.057367   
H13      H      0.504226565000     0.105186770000     0.072449570000     0.005266   
H14      H      0.513210775000     0.149549850000     0.082900025000     0.017095   
H15      H      0.501461865000     0.141824720000     0.038931730000     0.034871   
H16      H      0.869384700000     0.393959670000     0.087750525000     0.144962   
H17      H      0.710963490000     0.152627530000     0.466163665000     0.184639   
H18      H      0.842246350000     0.453364900000     0.068297550000     0.062419   
H19      H      0.732361000000     0.093906930000     0.488553300000     0.033905   
H20      H      0.646475225000     0.025028280000     0.035029335000     0.016162   
H21      H      0.658471000000     0.483969570000     0.062409970000     0.01939    
H22      H      0.597152980000     0.495548250000     0.497651350000     0.105241   
H23      H      0.608827880000     0.454438715000     0.025460055000     0.062555   
H24      H      0.558192445000     0.490849200000     0.078064090000     0.023956   
H25      H      0.517932195000     0.493559550000     0.042957235000     0.020004   
H26      H      0.545759400000     0.031961830000     0.049869275000     0.038348   
H27      H      0.808562130000     0.044005250000     0.123192675000     0.025194   
H28      H      0.754273450000     0.072296910000     0.103404835000     0.022457   
H29      H      0.835005100000     0.100860720000     0.140023960000     0.051326   
H30      H      0.777375670000     0.128983400000     0.122402325000     0.054799   
H31      H      0.716632050000     0.099132620000     0.165278790000     0.050642   
H32      H      0.757627430000     0.120576485000     0.187395410000     0.04851    
H33      H      0.774309050000     0.071095995000     0.183447850000     0.050709   
H34      H      0.849316120000     0.335669875000     0.075555010000     0.043902   
H35      H      0.904912470000     0.362401070000     0.108436160000    -0.003231   
H36      H      0.890455125000     0.288954100000     0.031978410000    -0.17006    
H37      H      0.501186305000     0.345530800000     0.095965500000     0.030933   
H38      H      0.576264875000     0.251595080000     0.425405920000     0.016785   
H39      H      0.516156055000     0.263474075000     0.455484600000     0.025886   
H40      H      0.997473700000     0.253962130000     0.395916670000     0.005646   
H41      H      0.535691650000     0.206744400000     0.397925375000     0.049361   
H42      H      0.975051285000     0.221695410000     0.428556850000     0.009224   
H43      H      0.643299190000     0.223699630000     0.112412310000     0.007426   
H44      H      0.591658675000     0.261834680000     0.102704955000     0.007942   
H45      H      0.636748200000     0.275011570000     0.150899470000     0.063987   
H46      H      0.700144000000     0.266337575000     0.121849580000     0.022318   
H47      H      0.646431500000     0.305070150000     0.112681975000     0.037071   
H48      H      0.723154040000     0.253928125000     0.000268545000    -0.22034    
H49      H      0.772636800000     0.217022540000     0.478931450000    -0.068451   
H50      H      0.820964875000     0.204107060000     0.028861875000     0.073926   
H51      H      0.804125000000     0.253299150000     0.022336250000    -0.4648     
H52      H      0.766467200000     0.232017175000     0.057753130000    -0.050515   
H53      H      0.592826820000     0.148898020000     0.486745625000     0.038308   
H54      H      0.650050120000     0.122934020000     0.004723870000     0.024473   
H55      H      0.694580465000     0.105835630000     0.442076625000     0.07164    
H56      H      0.632958190000     0.090922500000     0.455113950000     0.077758   
H57      H      0.633538485000     0.131036835000     0.426195300000     0.080672   
C58      C      0.737210125000     0.456568270000     0.024146045000     0.055252   
C59      C      0.808896300000     0.094849715000     0.052915680000     0.055293   
C60      C      0.739057630000     0.418189230000     0.025305380000     0.126092   
C61      C      0.814437925000     0.131863860000     0.047376825000     0.125727   
C62      C      0.811456250000     0.406048030000     0.059042590000     0.200228   
C63      C      0.757486435000     0.141945065000     0.002728555000    -0.022052   
C64      C      0.812861770000     0.443887600000     0.056289100000    -0.132802   
C65      C      0.754933500000     0.104323475000     0.005564875000    -0.022607   
C66      C      0.775843770000     0.469467050000     0.038638500000     0.005706   
C67      C      0.780785750000     0.080411880000     0.030627975000    -0.023142   
C68      C      0.777177125000     0.008714395000     0.035881805000    -0.043553   
C69      C      0.778518750000     0.041314900000     0.033432230000     0.002949   
C70      C      0.711738990000     0.405681350000     0.474276065000    -0.084205   
C71      C      0.675812000000     0.384640575000     0.460179270000    -0.030502   
C72      C      0.685918690000     0.383483915000     0.419799000000    -0.155224   
C73      C      0.899003850000     0.130942685000     0.057896615000     0.057988   
C74      C      0.930959450000     0.148709460000     0.079254940000    -0.109676   
C75      C      0.991201430000     0.135428500000     0.067582950000    -0.006332   
C76      C      0.653105440000     0.494523950000     0.034787115000     0.091271   
C77      C      0.603182105000     0.484878780000     0.024935890000    -0.057045   
C78      C      0.553241035000     0.001391170000     0.050631325000    -0.060705   
C79      C      0.795403650000     0.071099005000     0.109523825000     0.042971   
C80      C      0.793708325000     0.101763865000     0.134807400000    -0.070918   
C81      C      0.758318350000     0.097773435000     0.169898550000    -0.13784    
C82      C      0.999841650000     0.253646300000     0.021190805000    -0.07355    
C83      C      0.559127695000     0.295339750000     0.049858505000    -0.100979   
C84      C      0.916450500000     0.299084350000     0.046321950000     0.023696   
C85      C      0.978281380000     0.332796635000     0.081121170000     0.05807    
C86      C      0.892185850000     0.326908230000     0.070228690000    -0.077217   
C87      C      0.923151050000     0.342477000000     0.088561735000     0.132612   
C88      C      0.503470875000     0.305364250000     0.056648765000     0.008516   
C89      C      0.972796700000     0.285691080000     0.041093780000     0.010852   
C90      C      0.584125920000     0.260408900000     0.035662765000     0.012682   
C91      C      0.556405015000     0.245358320000     0.014025020000    -0.03235    
C92      C      0.636675060000     0.240885350000     0.041034100000     0.085984   
C93      C      0.585950160000     0.219181865000     0.488678400000     0.182628   
C94      C      0.664802360000     0.212981490000     0.017588490000     0.008942   
C95      C      0.637709470000     0.199376300000     0.494165870000    -0.383964   
C96      C      0.590585140000     0.323743435000     0.046612130000     0.336158   
C97      C      0.974549325000     0.221933215000     0.020728815000     0.13456    
C98      C      0.543053195000     0.240718300000     0.439962050000     0.046365   
C99      C      0.510849575000     0.230082300000     0.413915400000    -0.05989    
C100     C      0.635698750000     0.251672330000     0.100682070000     0.106984   
C101     C      0.656021580000     0.276101975000     0.122933700000    -0.212721   
C102     C      0.748444275000     0.225777450000     0.004744330000     0.52006    
C103     C      0.787191000000     0.228874700000     0.030104695000    -0.221847   
C104     C      0.637123900000     0.139764900000     0.481253450000     0.14403    
C105     C      0.650489100000     0.115334735000     0.449156400000    -0.215202   
N106     N      0.775125750000     0.393871550000     0.043266675000    -0.177439   
N107     N      0.787079900000     0.154970275000     0.023541815000    -0.089563   
O108     O      0.843650650000     0.145957400000     0.068168015000    -0.216695   
O109     O      0.845971400000     0.380977800000     0.077828735000    -0.329918   
O110     O      0.730400010000     0.166070490000     0.479172915000    -0.24291    
O111     O      0.697583990000     0.481186050000     0.008683360000    -0.255324   
O112     O      0.833395125000     0.072570560000     0.078950525000    -0.195007   
O113     O      0.700739830000     0.405439850000     0.011639525000    -0.215469   
O114     O      0.640266835000     0.311752150000     0.036781615000    -0.436675   
O115     O      0.505297635000     0.189201980000     0.016447605000    -0.237333   
O116     O      0.567406280000     0.358662785000     0.045682145000    -0.250909   
O117     O      0.924736025000     0.227011740000     0.032725395000    -0.363753   
O118     O      0.563297475000     0.209420070000     0.460956930000    -0.210253   
O119     O      0.664243350000     0.250722675000     0.066007620000    -0.347703   
O120     O      0.719252720000     0.198752350000     0.017548180000    -0.153546   
O121     O      0.664305030000     0.168777065000     0.474488170000    -0.127121   
Zn0      Zn     0.721996070000     0.285730750000     0.542540950000     1.12766    
Zn1      Zn     0.843129150000     0.262312470000     0.524585910000     1.19759    
H2       H      0.754477530000     0.392192700000     0.964997300000     0.041145   
H3       H      0.702795265000     0.434425235000     0.963270150000     0.050356   
H4       H      0.683473275000     0.355949750000     0.971330200000     0.010855   
H5       H      0.633052350000     0.398247800000     0.968837080000     0.065232   
H6       H      0.676845650000     0.411890150000     0.908064750000     0.05703    
H7       H      0.659621715000     0.367703080000     0.910527000000     0.050592   
H8       H      0.728331950000     0.369734525000     0.910531580000     0.048439   
H9       H      0.910751015000     0.136328010000     0.529113290000     0.026757   
H10      H      0.909800530000     0.100683780000     0.563307800000     0.033772   
H11      H      0.919071080000     0.179174950000     0.575817555000     0.059215   
H12      H      0.921579200000     0.141651700000     0.607867635000     0.057367   
H13      H      0.504226565000     0.105186770000     0.572449570000     0.005266   
H14      H      0.513210775000     0.149549850000     0.582900025000     0.017095   
H15      H      0.501461865000     0.141824720000     0.538931730000     0.034871   
H16      H      0.869384700000     0.393959670000     0.587750525000     0.144962   
H17      H      0.710963490000     0.152627530000     0.966163665000     0.184639   
H18      H      0.842246350000     0.453364900000     0.568297550000     0.062419   
H19      H      0.732361000000     0.093906930000     0.988553300000     0.033905   
H20      H      0.646475225000     0.025028280000     0.535029335000     0.016162   
H21      H      0.658471000000     0.483969570000     0.562409970000     0.01939    
H22      H      0.597152980000     0.495548250000     0.997651350000     0.105241   
H23      H      0.608827880000     0.454438715000     0.525460055000     0.062555   
H24      H      0.558192445000     0.490849200000     0.578064090000     0.023956   
H25      H      0.517932195000     0.493559550000     0.542957235000     0.020004   
H26      H      0.545759400000     0.031961830000     0.549869275000     0.038348   
H27      H      0.808562130000     0.044005250000     0.623192675000     0.025194   
H28      H      0.754273450000     0.072296910000     0.603404835000     0.022457   
H29      H      0.835005100000     0.100860720000     0.640023960000     0.051326   
H30      H      0.777375670000     0.128983400000     0.622402325000     0.054799   
H31      H      0.716632050000     0.099132620000     0.665278790000     0.050642   
H32      H      0.757627430000     0.120576485000     0.687395410000     0.04851    
H33      H      0.774309050000     0.071095995000     0.683447850000     0.050709   
H34      H      0.849316120000     0.335669875000     0.575555010000     0.043902   
H35      H      0.904912470000     0.362401070000     0.608436160000    -0.003231   
H36      H      0.890455125000     0.288954100000     0.531978410000    -0.17006    
H37      H      0.501186305000     0.345530800000     0.595965500000     0.030933   
H38      H      0.576264875000     0.251595080000     0.925405920000     0.016785   
H39      H      0.516156055000     0.263474075000     0.955484600000     0.025886   
H40      H      0.997473700000     0.253962130000     0.895916670000     0.005646   
H41      H      0.535691650000     0.206744400000     0.897925375000     0.049361   
H42      H      0.975051285000     0.221695410000     0.928556850000     0.009224   
H43      H      0.643299190000     0.223699630000     0.612412310000     0.007426   
H44      H      0.591658675000     0.261834680000     0.602704955000     0.007942   
H45      H      0.636748200000     0.275011570000     0.650899470000     0.063987   
H46      H      0.700144000000     0.266337575000     0.621849580000     0.022318   
H47      H      0.646431500000     0.305070150000     0.612681975000     0.037071   
H48      H      0.723154040000     0.253928125000     0.500268545000    -0.22034    
H49      H      0.772636800000     0.217022540000     0.978931450000    -0.068451   
H50      H      0.820964875000     0.204107060000     0.528861875000     0.073926   
H51      H      0.804125000000     0.253299150000     0.522336250000    -0.4648     
H52      H      0.766467200000     0.232017175000     0.557753130000    -0.050515   
H53      H      0.592826820000     0.148898020000     0.986745625000     0.038308   
H54      H      0.650050120000     0.122934020000     0.504723870000     0.024473   
H55      H      0.694580465000     0.105835630000     0.942076625000     0.07164    
H56      H      0.632958190000     0.090922500000     0.955113950000     0.077758   
H57      H      0.633538485000     0.131036835000     0.926195300000     0.080672   
C58      C      0.737210125000     0.456568270000     0.524146045000     0.055252   
C59      C      0.808896300000     0.094849715000     0.552915680000     0.055293   
C60      C      0.739057630000     0.418189230000     0.525305380000     0.126092   
C61      C      0.814437925000     0.131863860000     0.547376825000     0.125727   
C62      C      0.811456250000     0.406048030000     0.559042590000     0.200228   
C63      C      0.757486435000     0.141945065000     0.502728555000    -0.022052   
C64      C      0.812861770000     0.443887600000     0.556289100000    -0.132802   
C65      C      0.754933500000     0.104323475000     0.505564875000    -0.022607   
C66      C      0.775843770000     0.469467050000     0.538638500000     0.005706   
C67      C      0.780785750000     0.080411880000     0.530627975000    -0.023142   
C68      C      0.777177125000     0.008714395000     0.535881805000    -0.043553   
C69      C      0.778518750000     0.041314900000     0.533432230000     0.002949   
C70      C      0.711738990000     0.405681350000     0.974276065000    -0.084205   
C71      C      0.675812000000     0.384640575000     0.960179270000    -0.030502   
C72      C      0.685918690000     0.383483915000     0.919799000000    -0.155224   
C73      C      0.899003850000     0.130942685000     0.557896615000     0.057988   
C74      C      0.930959450000     0.148709460000     0.579254940000    -0.109676   
C75      C      0.991201430000     0.135428500000     0.567582950000    -0.006332   
C76      C      0.653105440000     0.494523950000     0.534787115000     0.091271   
C77      C      0.603182105000     0.484878780000     0.524935890000    -0.057045   
C78      C      0.553241035000     0.001391170000     0.550631325000    -0.060705   
C79      C      0.795403650000     0.071099005000     0.609523825000     0.042971   
C80      C      0.793708325000     0.101763865000     0.634807400000    -0.070918   
C81      C      0.758318350000     0.097773435000     0.669898550000    -0.13784    
C82      C      0.999841650000     0.253646300000     0.521190805000    -0.07355    
C83      C      0.559127695000     0.295339750000     0.549858505000    -0.100979   
C84      C      0.916450500000     0.299084350000     0.546321950000     0.023696   
C85      C      0.978281380000     0.332796635000     0.581121170000     0.05807    
C86      C      0.892185850000     0.326908230000     0.570228690000    -0.077217   
C87      C      0.923151050000     0.342477000000     0.588561735000     0.132612   
C88      C      0.503470875000     0.305364250000     0.556648765000     0.008516   
C89      C      0.972796700000     0.285691080000     0.541093780000     0.010852   
C90      C      0.584125920000     0.260408900000     0.535662765000     0.012682   
C91      C      0.556405015000     0.245358320000     0.514025020000    -0.03235    
C92      C      0.636675060000     0.240885350000     0.541034100000     0.085984   
C93      C      0.585950160000     0.219181865000     0.988678400000     0.182628   
C94      C      0.664802360000     0.212981490000     0.517588490000     0.008942   
C95      C      0.637709470000     0.199376300000     0.994165870000    -0.383964   
C96      C      0.590585140000     0.323743435000     0.546612130000     0.336158   
C97      C      0.974549325000     0.221933215000     0.520728815000     0.13456    
C98      C      0.543053195000     0.240718300000     0.939962050000     0.046365   
C99      C      0.510849575000     0.230082300000     0.913915400000    -0.05989    
C100     C      0.635698750000     0.251672330000     0.600682070000     0.106984   
C101     C      0.656021580000     0.276101975000     0.622933700000    -0.212721   
C102     C      0.748444275000     0.225777450000     0.504744330000     0.52006    
C103     C      0.787191000000     0.228874700000     0.530104695000    -0.221847   
C104     C      0.637123900000     0.139764900000     0.981253450000     0.14403    
C105     C      0.650489100000     0.115334735000     0.949156400000    -0.215202   
N106     N      0.775125750000     0.393871550000     0.543266675000    -0.177439   
N107     N      0.787079900000     0.154970275000     0.523541815000    -0.089563   
O108     O      0.843650650000     0.145957400000     0.568168015000    -0.216695   
O109     O      0.845971400000     0.380977800000     0.577828735000    -0.329918   
O110     O      0.730400010000     0.166070490000     0.979172915000    -0.24291    
O111     O      0.697583990000     0.481186050000     0.508683360000    -0.255324   
O112     O      0.833395125000     0.072570560000     0.578950525000    -0.195007   
O113     O      0.700739830000     0.405439850000     0.511639525000    -0.215469   
O114     O      0.640266835000     0.311752150000     0.536781615000    -0.436675   
O115     O      0.505297635000     0.189201980000     0.516447605000    -0.237333   
O116     O      0.567406280000     0.358662785000     0.545682145000    -0.250909   
O117     O      0.924736025000     0.227011740000     0.532725395000    -0.363753   
O118     O      0.563297475000     0.209420070000     0.960956930000    -0.210253   
O119     O      0.664243350000     0.250722675000     0.566007620000    -0.347703   
O120     O      0.719252720000     0.198752350000     0.517548180000    -0.153546   
O121     O      0.664305030000     0.168777065000     0.974488170000    -0.127121   
Zn0      Zn     0.721996070000     0.785730750000     0.042540950000     1.12766    
Zn1      Zn     0.843129150000     0.762312470000     0.024585910000     1.19759    
H2       H      0.754477530000     0.892192700000     0.464997300000     0.041145   
H3       H      0.702795265000     0.934425235000     0.463270150000     0.050356   
H4       H      0.683473275000     0.855949750000     0.471330200000     0.010855   
H5       H      0.633052350000     0.898247800000     0.468837080000     0.065232   
H6       H      0.676845650000     0.911890150000     0.408064750000     0.05703    
H7       H      0.659621715000     0.867703080000     0.410527000000     0.050592   
H8       H      0.728331950000     0.869734525000     0.410531580000     0.048439   
H9       H      0.910751015000     0.636328010000     0.029113290000     0.026757   
H10      H      0.909800530000     0.600683780000     0.063307800000     0.033772   
H11      H      0.919071080000     0.679174950000     0.075817555000     0.059215   
H12      H      0.921579200000     0.641651700000     0.107867635000     0.057367   
H13      H      0.504226565000     0.605186770000     0.072449570000     0.005266   
H14      H      0.513210775000     0.649549850000     0.082900025000     0.017095   
H15      H      0.501461865000     0.641824720000     0.038931730000     0.034871   
H16      H      0.869384700000     0.893959670000     0.087750525000     0.144962   
H17      H      0.710963490000     0.652627530000     0.466163665000     0.184639   
H18      H      0.842246350000     0.953364900000     0.068297550000     0.062419   
H19      H      0.732361000000     0.593906930000     0.488553300000     0.033905   
H20      H      0.646475225000     0.525028280000     0.035029335000     0.016162   
H21      H      0.658471000000     0.983969570000     0.062409970000     0.01939    
H22      H      0.597152980000     0.995548250000     0.497651350000     0.105241   
H23      H      0.608827880000     0.954438715000     0.025460055000     0.062555   
H24      H      0.558192445000     0.990849200000     0.078064090000     0.023956   
H25      H      0.517932195000     0.993559550000     0.042957235000     0.020004   
H26      H      0.545759400000     0.531961830000     0.049869275000     0.038348   
H27      H      0.808562130000     0.544005250000     0.123192675000     0.025194   
H28      H      0.754273450000     0.572296910000     0.103404835000     0.022457   
H29      H      0.835005100000     0.600860720000     0.140023960000     0.051326   
H30      H      0.777375670000     0.628983400000     0.122402325000     0.054799   
H31      H      0.716632050000     0.599132620000     0.165278790000     0.050642   
H32      H      0.757627430000     0.620576485000     0.187395410000     0.04851    
H33      H      0.774309050000     0.571095995000     0.183447850000     0.050709   
H34      H      0.849316120000     0.835669875000     0.075555010000     0.043902   
H35      H      0.904912470000     0.862401070000     0.108436160000    -0.003231   
H36      H      0.890455125000     0.788954100000     0.031978410000    -0.17006    
H37      H      0.501186305000     0.845530800000     0.095965500000     0.030933   
H38      H      0.576264875000     0.751595080000     0.425405920000     0.016785   
H39      H      0.516156055000     0.763474075000     0.455484600000     0.025886   
H40      H      0.997473700000     0.753962130000     0.395916670000     0.005646   
H41      H      0.535691650000     0.706744400000     0.397925375000     0.049361   
H42      H      0.975051285000     0.721695410000     0.428556850000     0.009224   
H43      H      0.643299190000     0.723699630000     0.112412310000     0.007426   
H44      H      0.591658675000     0.761834680000     0.102704955000     0.007942   
H45      H      0.636748200000     0.775011570000     0.150899470000     0.063987   
H46      H      0.700144000000     0.766337575000     0.121849580000     0.022318   
H47      H      0.646431500000     0.805070150000     0.112681975000     0.037071   
H48      H      0.723154040000     0.753928125000     0.000268545000    -0.22034    
H49      H      0.772636800000     0.717022540000     0.478931450000    -0.068451   
H50      H      0.820964875000     0.704107060000     0.028861875000     0.073926   
H51      H      0.804125000000     0.753299150000     0.022336250000    -0.4648     
H52      H      0.766467200000     0.732017175000     0.057753130000    -0.050515   
H53      H      0.592826820000     0.648898020000     0.486745625000     0.038308   
H54      H      0.650050120000     0.622934020000     0.004723870000     0.024473   
H55      H      0.694580465000     0.605835630000     0.442076625000     0.07164    
H56      H      0.632958190000     0.590922500000     0.455113950000     0.077758   
H57      H      0.633538485000     0.631036835000     0.426195300000     0.080672   
C58      C      0.737210125000     0.956568270000     0.024146045000     0.055252   
C59      C      0.808896300000     0.594849715000     0.052915680000     0.055293   
C60      C      0.739057630000     0.918189230000     0.025305380000     0.126092   
C61      C      0.814437925000     0.631863860000     0.047376825000     0.125727   
C62      C      0.811456250000     0.906048030000     0.059042590000     0.200228   
C63      C      0.757486435000     0.641945065000     0.002728555000    -0.022052   
C64      C      0.812861770000     0.943887600000     0.056289100000    -0.132802   
C65      C      0.754933500000     0.604323475000     0.005564875000    -0.022607   
C66      C      0.775843770000     0.969467050000     0.038638500000     0.005706   
C67      C      0.780785750000     0.580411880000     0.030627975000    -0.023142   
C68      C      0.777177125000     0.508714395000     0.035881805000    -0.043553   
C69      C      0.778518750000     0.541314900000     0.033432230000     0.002949   
C70      C      0.711738990000     0.905681350000     0.474276065000    -0.084205   
C71      C      0.675812000000     0.884640575000     0.460179270000    -0.030502   
C72      C      0.685918690000     0.883483915000     0.419799000000    -0.155224   
C73      C      0.899003850000     0.630942685000     0.057896615000     0.057988   
C74      C      0.930959450000     0.648709460000     0.079254940000    -0.109676   
C75      C      0.991201430000     0.635428500000     0.067582950000    -0.006332   
C76      C      0.653105440000     0.994523950000     0.034787115000     0.091271   
C77      C      0.603182105000     0.984878780000     0.024935890000    -0.057045   
C78      C      0.553241035000     0.501391170000     0.050631325000    -0.060705   
C79      C      0.795403650000     0.571099005000     0.109523825000     0.042971   
C80      C      0.793708325000     0.601763865000     0.134807400000    -0.070918   
C81      C      0.758318350000     0.597773435000     0.169898550000    -0.13784    
C82      C      0.999841650000     0.753646300000     0.021190805000    -0.07355    
C83      C      0.559127695000     0.795339750000     0.049858505000    -0.100979   
C84      C      0.916450500000     0.799084350000     0.046321950000     0.023696   
C85      C      0.978281380000     0.832796635000     0.081121170000     0.05807    
C86      C      0.892185850000     0.826908230000     0.070228690000    -0.077217   
C87      C      0.923151050000     0.842477000000     0.088561735000     0.132612   
C88      C      0.503470875000     0.805364250000     0.056648765000     0.008516   
C89      C      0.972796700000     0.785691080000     0.041093780000     0.010852   
C90      C      0.584125920000     0.760408900000     0.035662765000     0.012682   
C91      C      0.556405015000     0.745358320000     0.014025020000    -0.03235    
C92      C      0.636675060000     0.740885350000     0.041034100000     0.085984   
C93      C      0.585950160000     0.719181865000     0.488678400000     0.182628   
C94      C      0.664802360000     0.712981490000     0.017588490000     0.008942   
C95      C      0.637709470000     0.699376300000     0.494165870000    -0.383964   
C96      C      0.590585140000     0.823743435000     0.046612130000     0.336158   
C97      C      0.974549325000     0.721933215000     0.020728815000     0.13456    
C98      C      0.543053195000     0.740718300000     0.439962050000     0.046365   
C99      C      0.510849575000     0.730082300000     0.413915400000    -0.05989    
C100     C      0.635698750000     0.751672330000     0.100682070000     0.106984   
C101     C      0.656021580000     0.776101975000     0.122933700000    -0.212721   
C102     C      0.748444275000     0.725777450000     0.004744330000     0.52006    
C103     C      0.787191000000     0.728874700000     0.030104695000    -0.221847   
C104     C      0.637123900000     0.639764900000     0.481253450000     0.14403    
C105     C      0.650489100000     0.615334735000     0.449156400000    -0.215202   
N106     N      0.775125750000     0.893871550000     0.043266675000    -0.177439   
N107     N      0.787079900000     0.654970275000     0.023541815000    -0.089563   
O108     O      0.843650650000     0.645957400000     0.068168015000    -0.216695   
O109     O      0.845971400000     0.880977800000     0.077828735000    -0.329918   
O110     O      0.730400010000     0.666070490000     0.479172915000    -0.24291    
O111     O      0.697583990000     0.981186050000     0.008683360000    -0.255324   
O112     O      0.833395125000     0.572570560000     0.078950525000    -0.195007   
O113     O      0.700739830000     0.905439850000     0.011639525000    -0.215469   
O114     O      0.640266835000     0.811752150000     0.036781615000    -0.436675   
O115     O      0.505297635000     0.689201980000     0.016447605000    -0.237333   
O116     O      0.567406280000     0.858662785000     0.045682145000    -0.250909   
O117     O      0.924736025000     0.727011740000     0.032725395000    -0.363753   
O118     O      0.563297475000     0.709420070000     0.460956930000    -0.210253   
O119     O      0.664243350000     0.750722675000     0.066007620000    -0.347703   
O120     O      0.719252720000     0.698752350000     0.017548180000    -0.153546   
O121     O      0.664305030000     0.668777065000     0.474488170000    -0.127121   
Zn0      Zn     0.721996070000     0.785730750000     0.542540950000     1.12766    
Zn1      Zn     0.843129150000     0.762312470000     0.524585910000     1.19759    
H2       H      0.754477530000     0.892192700000     0.964997300000     0.041145   
H3       H      0.702795265000     0.934425235000     0.963270150000     0.050356   
H4       H      0.683473275000     0.855949750000     0.971330200000     0.010855   
H5       H      0.633052350000     0.898247800000     0.968837080000     0.065232   
H6       H      0.676845650000     0.911890150000     0.908064750000     0.05703    
H7       H      0.659621715000     0.867703080000     0.910527000000     0.050592   
H8       H      0.728331950000     0.869734525000     0.910531580000     0.048439   
H9       H      0.910751015000     0.636328010000     0.529113290000     0.026757   
H10      H      0.909800530000     0.600683780000     0.563307800000     0.033772   
H11      H      0.919071080000     0.679174950000     0.575817555000     0.059215   
H12      H      0.921579200000     0.641651700000     0.607867635000     0.057367   
H13      H      0.504226565000     0.605186770000     0.572449570000     0.005266   
H14      H      0.513210775000     0.649549850000     0.582900025000     0.017095   
H15      H      0.501461865000     0.641824720000     0.538931730000     0.034871   
H16      H      0.869384700000     0.893959670000     0.587750525000     0.144962   
H17      H      0.710963490000     0.652627530000     0.966163665000     0.184639   
H18      H      0.842246350000     0.953364900000     0.568297550000     0.062419   
H19      H      0.732361000000     0.593906930000     0.988553300000     0.033905   
H20      H      0.646475225000     0.525028280000     0.535029335000     0.016162   
H21      H      0.658471000000     0.983969570000     0.562409970000     0.01939    
H22      H      0.597152980000     0.995548250000     0.997651350000     0.105241   
H23      H      0.608827880000     0.954438715000     0.525460055000     0.062555   
H24      H      0.558192445000     0.990849200000     0.578064090000     0.023956   
H25      H      0.517932195000     0.993559550000     0.542957235000     0.020004   
H26      H      0.545759400000     0.531961830000     0.549869275000     0.038348   
H27      H      0.808562130000     0.544005250000     0.623192675000     0.025194   
H28      H      0.754273450000     0.572296910000     0.603404835000     0.022457   
H29      H      0.835005100000     0.600860720000     0.640023960000     0.051326   
H30      H      0.777375670000     0.628983400000     0.622402325000     0.054799   
H31      H      0.716632050000     0.599132620000     0.665278790000     0.050642   
H32      H      0.757627430000     0.620576485000     0.687395410000     0.04851    
H33      H      0.774309050000     0.571095995000     0.683447850000     0.050709   
H34      H      0.849316120000     0.835669875000     0.575555010000     0.043902   
H35      H      0.904912470000     0.862401070000     0.608436160000    -0.003231   
H36      H      0.890455125000     0.788954100000     0.531978410000    -0.17006    
H37      H      0.501186305000     0.845530800000     0.595965500000     0.030933   
H38      H      0.576264875000     0.751595080000     0.925405920000     0.016785   
H39      H      0.516156055000     0.763474075000     0.955484600000     0.025886   
H40      H      0.997473700000     0.753962130000     0.895916670000     0.005646   
H41      H      0.535691650000     0.706744400000     0.897925375000     0.049361   
H42      H      0.975051285000     0.721695410000     0.928556850000     0.009224   
H43      H      0.643299190000     0.723699630000     0.612412310000     0.007426   
H44      H      0.591658675000     0.761834680000     0.602704955000     0.007942   
H45      H      0.636748200000     0.775011570000     0.650899470000     0.063987   
H46      H      0.700144000000     0.766337575000     0.621849580000     0.022318   
H47      H      0.646431500000     0.805070150000     0.612681975000     0.037071   
H48      H      0.723154040000     0.753928125000     0.500268545000    -0.22034    
H49      H      0.772636800000     0.717022540000     0.978931450000    -0.068451   
H50      H      0.820964875000     0.704107060000     0.528861875000     0.073926   
H51      H      0.804125000000     0.753299150000     0.522336250000    -0.4648     
H52      H      0.766467200000     0.732017175000     0.557753130000    -0.050515   
H53      H      0.592826820000     0.648898020000     0.986745625000     0.038308   
H54      H      0.650050120000     0.622934020000     0.504723870000     0.024473   
H55      H      0.694580465000     0.605835630000     0.942076625000     0.07164    
H56      H      0.632958190000     0.590922500000     0.955113950000     0.077758   
H57      H      0.633538485000     0.631036835000     0.926195300000     0.080672   
C58      C      0.737210125000     0.956568270000     0.524146045000     0.055252   
C59      C      0.808896300000     0.594849715000     0.552915680000     0.055293   
C60      C      0.739057630000     0.918189230000     0.525305380000     0.126092   
C61      C      0.814437925000     0.631863860000     0.547376825000     0.125727   
C62      C      0.811456250000     0.906048030000     0.559042590000     0.200228   
C63      C      0.757486435000     0.641945065000     0.502728555000    -0.022052   
C64      C      0.812861770000     0.943887600000     0.556289100000    -0.132802   
C65      C      0.754933500000     0.604323475000     0.505564875000    -0.022607   
C66      C      0.775843770000     0.969467050000     0.538638500000     0.005706   
C67      C      0.780785750000     0.580411880000     0.530627975000    -0.023142   
C68      C      0.777177125000     0.508714395000     0.535881805000    -0.043553   
C69      C      0.778518750000     0.541314900000     0.533432230000     0.002949   
C70      C      0.711738990000     0.905681350000     0.974276065000    -0.084205   
C71      C      0.675812000000     0.884640575000     0.960179270000    -0.030502   
C72      C      0.685918690000     0.883483915000     0.919799000000    -0.155224   
C73      C      0.899003850000     0.630942685000     0.557896615000     0.057988   
C74      C      0.930959450000     0.648709460000     0.579254940000    -0.109676   
C75      C      0.991201430000     0.635428500000     0.567582950000    -0.006332   
C76      C      0.653105440000     0.994523950000     0.534787115000     0.091271   
C77      C      0.603182105000     0.984878780000     0.524935890000    -0.057045   
C78      C      0.553241035000     0.501391170000     0.550631325000    -0.060705   
C79      C      0.795403650000     0.571099005000     0.609523825000     0.042971   
C80      C      0.793708325000     0.601763865000     0.634807400000    -0.070918   
C81      C      0.758318350000     0.597773435000     0.669898550000    -0.13784    
C82      C      0.999841650000     0.753646300000     0.521190805000    -0.07355    
C83      C      0.559127695000     0.795339750000     0.549858505000    -0.100979   
C84      C      0.916450500000     0.799084350000     0.546321950000     0.023696   
C85      C      0.978281380000     0.832796635000     0.581121170000     0.05807    
C86      C      0.892185850000     0.826908230000     0.570228690000    -0.077217   
C87      C      0.923151050000     0.842477000000     0.588561735000     0.132612   
C88      C      0.503470875000     0.805364250000     0.556648765000     0.008516   
C89      C      0.972796700000     0.785691080000     0.541093780000     0.010852   
C90      C      0.584125920000     0.760408900000     0.535662765000     0.012682   
C91      C      0.556405015000     0.745358320000     0.514025020000    -0.03235    
C92      C      0.636675060000     0.740885350000     0.541034100000     0.085984   
C93      C      0.585950160000     0.719181865000     0.988678400000     0.182628   
C94      C      0.664802360000     0.712981490000     0.517588490000     0.008942   
C95      C      0.637709470000     0.699376300000     0.994165870000    -0.383964   
C96      C      0.590585140000     0.823743435000     0.546612130000     0.336158   
C97      C      0.974549325000     0.721933215000     0.520728815000     0.13456    
C98      C      0.543053195000     0.740718300000     0.939962050000     0.046365   
C99      C      0.510849575000     0.730082300000     0.913915400000    -0.05989    
C100     C      0.635698750000     0.751672330000     0.600682070000     0.106984   
C101     C      0.656021580000     0.776101975000     0.622933700000    -0.212721   
C102     C      0.748444275000     0.725777450000     0.504744330000     0.52006    
C103     C      0.787191000000     0.728874700000     0.530104695000    -0.221847   
C104     C      0.637123900000     0.639764900000     0.981253450000     0.14403    
C105     C      0.650489100000     0.615334735000     0.949156400000    -0.215202   
N106     N      0.775125750000     0.893871550000     0.543266675000    -0.177439   
N107     N      0.787079900000     0.654970275000     0.523541815000    -0.089563   
O108     O      0.843650650000     0.645957400000     0.568168015000    -0.216695   
O109     O      0.845971400000     0.880977800000     0.577828735000    -0.329918   
O110     O      0.730400010000     0.666070490000     0.979172915000    -0.24291    
O111     O      0.697583990000     0.981186050000     0.508683360000    -0.255324   
O112     O      0.833395125000     0.572570560000     0.578950525000    -0.195007   
O113     O      0.700739830000     0.905439850000     0.511639525000    -0.215469   
O114     O      0.640266835000     0.811752150000     0.536781615000    -0.436675   
O115     O      0.505297635000     0.689201980000     0.516447605000    -0.237333   
O116     O      0.567406280000     0.858662785000     0.545682145000    -0.250909   
O117     O      0.924736025000     0.727011740000     0.532725395000    -0.363753   
O118     O      0.563297475000     0.709420070000     0.960956930000    -0.210253   
O119     O      0.664243350000     0.750722675000     0.566007620000    -0.347703   
O120     O      0.719252720000     0.698752350000     0.517548180000    -0.153546   
O121     O      0.664305030000     0.668777065000     0.974488170000    -0.127121   


