data_sample_1_relaxed_charged

_audit_creation_method RASPA-1.0
_audit_creation_date 2026-2-5
_audit_author_name ''

_cell_length_a    50.0629
_cell_length_b    56.7595
_cell_length_c    56.5904
_cell_angle_alpha 90.9519
_cell_angle_beta  90.645
_cell_angle_gamma 89.8506
_cell_volume      160772

_symmetry_cell_setting          triclinic
_symmetry_space_group_name_Hall 'P 1'
_symmetry_space_group_name_H-M  'P 1'
_symmetry_Int_Tables_number     1

_symmetry_equiv_pos_as_xyz 'x,y,z'

loop_
_atom_site_label
_atom_site_type_symbol
_atom_site_fract_x
_atom_site_fract_y
_atom_site_fract_z
_atom_site_charge
Zn0      Zn     0.354781150000     0.297413020000     0.353741550000     11.6221    
Zn1      Zn     0.301684080000     0.302036435000     0.340145550000    -39.5627    
Zn2      Zn     0.320769280000     0.063419870000     0.341974050000     1.43201    
Zn3      Zn     0.363131950000     0.033491885000     0.363337650000     1.47173    
Zn4      Zn     0.322756170000     0.042749785000     0.093939965000     1.26074    
Zn5      Zn     0.377343415000     0.055933170000     0.109538385000     1.26107    
Zn6      Zn     0.114946360000     0.307540050000     0.147817350000     1.0354     
Zn7      Zn     0.093337015000     0.291723000000     0.099918740000     2.12308    
Zn8      Zn     0.092782675000     0.296690850000     0.329890300000    -0.940459   
Zn9      Zn     0.152107820000     0.298732150000     0.330501615000     1.44961    
Zn10     Zn     0.100891015000     0.075228385000     0.105282975000     1.28979    
Zn11     Zn     0.096796765000     0.023481950000     0.112348660000     1.29637    
H12      H      0.030766065000     0.360645385000     0.145051050000    -0.479552   
H13      H      0.079845735000     0.363411875000     0.140186520000     1.36086    
H14      H      0.110241265000     0.341763375000     0.166874035000    -0.301682   
H15      H      0.042412255000     0.315438200000     0.204279050000     0.055738   
H16      H      0.012204185000     0.336651750000     0.177154975000     0.247367   
H17      H      0.130654735000     0.260675580000     0.207407190000     0.063838   
H18      H      0.204077765000     0.249085650000     0.266602785000     0.031226   
H19      H      0.176751690000     0.228049770000     0.295070200000     0.03739    
H20      H      0.127934590000     0.233937050000     0.295878000000     0.002275   
H21      H      0.106220970000     0.262129550000     0.269134650000     0.073182   
H22      H      0.132003160000     0.361580350000     0.217879890000     0.065881   
H23      H      0.118834125000     0.403040400000     0.225383565000     0.008603   
H24      H      0.074705355000     0.412388200000     0.242623880000     0.056025   
H25      H      0.043569790000     0.380156070000     0.252405700000     0.02844    
H26      H      0.056335670000     0.338597800000     0.244776370000     0.073104   
H27      H      0.173765940000     0.314860550000     0.238332735000     0.064546   
H28      H      0.205966650000     0.333046850000     0.212239920000     0.008147   
H29      H      0.239927860000     0.308724050000     0.191912875000     0.034454   
H30      H      0.240786450000     0.265317000000     0.197278530000     0.025049   
H31      H      0.208416350000     0.246655465000     0.223179550000     0.053397   
H32      H      0.123077900000     0.325490830000     0.018889845000     0.038505   
H33      H      0.175005480000     0.241894600000     0.481697150000     0.043094   
H34      H      0.159181790000     0.312956900000     0.002776565000     0.034742   
H35      H      0.093534200000     0.262379550000     0.441473650000     0.062778   
H36      H      0.064414025000     0.387874930000     0.494924350000     0.088457   
H37      H      0.018067040000     0.383706870000     0.002160370000     0.016163   
H38      H      0.035452675000     0.363940650000     0.021754980000     0.037114   
H39      H      0.020091520000     0.352783550000     0.494614200000    -0.00296    
H40      H      0.072481095000     0.305563700000     0.405665400000     0.069125   
H41      H      0.068293385000     0.274144175000     0.407929630000     0.053771   
H42      H      0.039662395000     0.292669700000     0.402981550000     0.027201   
H43      H      0.044782480000     0.278335050000     0.445196550000     0.020575   
H44      H      0.040605345000     0.308412350000     0.442832770000     0.01469    
H45      H      0.073002875000     0.386365100000     0.451469630000     0.061056   
H46      H      0.099323150000     0.368104250000     0.439359650000     0.069032   
H47      H      0.071535855000     0.377176000000     0.421118000000     0.055772   
H48      H      0.064915895000     0.337409230000     0.429946780000     0.033447   
H49      H      0.040492705000     0.353217065000     0.446969775000     0.014218   
H50      H      0.201986500000     0.296474280000     0.007805290000     0.067956   
H51      H      0.220393985000     0.266379050000     0.031073330000     0.029009   
H52      H      0.197681800000     0.245242315000     0.018172860000     0.045535   
H53      H      0.185316580000     0.268146150000     0.038007320000     0.040736   
H54      H      0.124665565000     0.316004400000     0.265544175000     0.103052   
H55      H      0.103394200000     0.277295470000     0.242747275000     0.02719    
H56      H      0.149512960000     0.330232350000     0.249436450000     0.08642    
H57      H      0.122699125000     0.261434250000     0.221528650000     0.069418   
H58      H      0.148867475000     0.336202300000     0.200089050000     0.146345   
H59      H      0.143071620000     0.312349950000     0.179717570000     0.161114   
H60      H      0.176889880000     0.310012300000     0.219108865000     0.078479   
H61      H      0.163044470000     0.285246250000     0.203051520000     0.014264   
H62      H      0.076122195000     0.359215615000     0.210718825000     0.643648   
H63      H      0.108390780000     0.316810280000     0.154664010000     1.37845    
H64      H      0.139738140000     0.289999125000     0.286704800000     0.013532   
H65      H      0.173692800000     0.252853600000     0.227098250000     0.012253   
H66      H      0.115702680000     0.348257480000     0.230408265000     0.156841   
H67      H      0.109828400000     0.282575430000     0.190248115000    -0.215168   
H68      H      0.096353330000     0.347473100000     0.277184550000     0.159498   
H69      H      0.080631795000     0.365629200000     0.255013585000     0.123979   
H70      H      0.060650970000     0.346627175000     0.272825900000     0.072458   
H71      H      0.065529540000     0.329546125000     0.233272525000     0.031518   
H72      H      0.080680445000     0.311337235000     0.254614470000     0.016631   
H73      H      0.049437750000     0.306175200000     0.182662450000     0.116327   
H74      H      0.068647705000     0.282568930000     0.168753965000     0.163865   
H75      H      0.038219540000     0.276482850000     0.184020015000     0.068741   
H76      H      0.070797035000     0.265061320000     0.210923925000     0.024335   
H77      H      0.060966175000     0.292862030000     0.221943170000     0.036608   
H78      H      0.308831650000     0.307822850000     0.379715530000     6.56903    
H79      H      0.221154215000     0.287343530000     0.388205050000    -0.04149    
H80      H      0.200207550000     0.260041835000     0.298928915000     0.186623   
H81      H      0.327410450000     0.316047520000     0.277490080000     0.318455   
H82      H      0.122514050000     0.387109750000     0.325734300000     0.153658   
H83      H      0.273905750000     0.324092865000     0.283655550000    -0.193835   
H84      H      0.244284810000     0.330594120000     0.300649525000    -0.263986   
H85      H      0.216818290000     0.307829100000     0.270920250000     0.182652   
H86      H      0.125186160000     0.262985615000     0.327729150000    -0.019126   
H87      H      0.234279635000     0.332274885000     0.258108400000     0.11173    
H88      H      0.246542975000     0.302547500000     0.253710715000     0.205464   
H89      H      0.167195710000     0.352428975000     0.297334880000     0.053121   
H90      H      0.196118160000     0.334025550000     0.302184435000     0.044859   
H91      H      0.219487500000     0.367394650000     0.322519750000     0.090444   
H92      H      0.209578560000     0.374337100000     0.292618700000     0.059565   
H93      H      0.190733835000     0.386078120000     0.317233150000     0.085566   
H94      H      0.193842815000     0.076186400000     0.147065520000     0.056703   
H95      H      0.143544180000     0.002842850000     0.129638075000     0.112876   
H96      H      0.323372300000     0.133718850000     0.056727575000     0.153055   
H97      H      0.262349650000     0.138665185000     0.133964200000     0.061868   
H98      H      0.232461035000     0.122200260000     0.140621400000     0.058093   
H99      H      0.261002450000     0.121437275000     0.160345950000     0.058169   
H100     H      0.258024350000     0.084480040000     0.136267425000     0.02815    
H101     H      0.287837180000     0.100680100000     0.129931950000     0.034582   
H102     H      0.262753070000     0.118669500000     0.094387480000     0.062963   
H103     H      0.235345170000     0.100600700000     0.100390710000     0.055237   
H104     H      0.153595075000     0.098389475000     0.216513770000     0.06204    
H105     H      0.118980875000     0.090733590000     0.210780800000     0.073994   
H106     H      0.137721570000     0.075780010000     0.233456390000     0.064611   
H107     H      0.133514315000     0.050064260000     0.198213560000     0.049579   
H108     H      0.167750600000     0.058150365000     0.203007670000     0.030396   
H109     H      0.163515200000     0.090089845000     0.173509225000     0.057959   
H110     H      0.129812200000     0.083066755000     0.167427900000     0.089136   
H111     H      0.239190750000     0.489087550000     0.084349030000     0.171379   
H112     H      0.300635665000     0.024970335000     0.001289825000     0.164678   
H113     H      0.192150235000     0.001836435000     0.067638790000     0.167077   
H114     H      0.434032470000     0.458237470000     0.052340845000     0.048599   
H115     H      0.405567600000     0.444532275000     0.065464890000     0.039401   
H116     H      0.403206700000     0.473994750000     0.054209610000     0.048918   
H117     H      0.433428850000     0.456555130000     0.098503485000     0.031778   
H118     H      0.405882250000     0.475432100000     0.098160965000     0.027819   
H119     H      0.450427000000     0.115160400000     0.184845640000     0.066476   
H120     H      0.475372050000     0.120554870000     0.162886725000     0.06029    
H121     H      0.443012500000     0.134748920000     0.161667230000     0.051325   
H122     H      0.436266720000     0.105630830000     0.133330315000     0.054736   
H123     H      0.424206600000     0.091599210000     0.159844680000     0.067509   
H124     H      0.028311430000     0.084477580000     0.090226895000     0.081588   
H125     H      0.018060565000     0.110546700000     0.105680405000     0.072682   
H126     H      0.052786825000     0.105978110000     0.099757535000     0.065684   
H127     H      0.040503445000     0.099483215000     0.141388850000     0.045672   
H128     H      0.056097985000     0.074576260000     0.128860175000     0.001847   
H129     H      0.008293510000     0.467182070000     0.113068335000     0.111766   
H130     H      0.475236700000     0.455962720000     0.118612800000     0.073953   
H131     H      0.000079630000     0.437292300000     0.104935965000     0.087395   
H132     H      0.469905250000     0.450114700000     0.073642240000     0.023623   
H133     H      0.001238585000     0.463904150000     0.070271985000     0.050667   
H134     H      0.422397900000     0.044800930000     0.052114215000     0.08311    
H135     H      0.414619775000     0.015808400000     0.040885295000     0.060751   
H136     H      0.387950350000     0.036250295000     0.047444515000     0.046945   
H137     H      0.393297585000     0.005029930000     0.077343880000     0.007754   
H138     H      0.395910050000     0.031818555000     0.090425515000    -0.092089   
C139     C      0.122800575000     0.318549600000     0.265320865000     0.061482   
C140     C      0.102142630000     0.279804080000     0.173161950000     0.664252   
C141     C      0.071722335000     0.352690300000     0.154001475000    -4.94829    
C142     C      0.088903740000     0.340376200000     0.169074120000     7.6295     
C143     C      0.078500800000     0.326098380000     0.186752230000     1.12387    
C144     C      0.050747895000     0.325405550000     0.189987465000    -0.005355   
C145     C      0.033596125000     0.337623350000     0.174828425000    -0.858299   
C146     C      0.044065420000     0.351167320000     0.156760035000     2.08455    
C147     C      0.102664090000     0.322452875000     0.225308535000    -0.100093   
C148     C      0.117718525000     0.309115915000     0.241564550000     0.139478   
C149     C      0.128214050000     0.286922600000     0.234871565000    -0.015962   
C150     C      0.122735225000     0.277831500000     0.212412760000    -0.205585   
C151     C      0.106895590000     0.290363430000     0.196496600000     0.100074   
C152     C      0.096614735000     0.312869800000     0.202821640000    -1.35186    
C153     C      0.170815470000     0.267802120000     0.250562900000    -0.045154   
C154     C      0.182714880000     0.252158200000     0.266683050000     0.056739   
C155     C      0.167336750000     0.240212915000     0.283000800000     0.087119   
C156     C      0.139841080000     0.243714080000     0.283623370000     0.1884     
C157     C      0.127663950000     0.259637175000     0.268368550000    -0.131448   
C158     C      0.142809375000     0.271791900000     0.251758365000     0.112241   
C159     C      0.095124470000     0.347194820000     0.230915130000     0.206983   
C160     C      0.112711170000     0.365497700000     0.225511180000    -0.287013   
C161     C      0.105284730000     0.388949335000     0.229658290000     0.06934    
C162     C      0.080373445000     0.394218830000     0.239333720000    -0.105972   
C163     C      0.062841520000     0.376041800000     0.244882775000    -0.023451   
C164     C      0.070128785000     0.352562550000     0.240630050000    -0.214742   
C165     C      0.188310265000     0.279152250000     0.232914400000     0.08129    
C166     C      0.187828450000     0.303635050000     0.229380665000    -0.182201   
C167     C      0.206347765000     0.314162150000     0.214614450000     0.013855   
C168     C      0.225443465000     0.300415900000     0.203055815000    -0.070205   
C169     C      0.225900575000     0.276057720000     0.206059010000     0.006161   
C170     C      0.207449690000     0.265491300000     0.220830000000    -0.084661   
C171     C      0.127386125000     0.233008070000     0.462006500000     0.262834   
C172     C      0.102118215000     0.366450050000     0.022384105000     0.261028   
C173     C      0.072631405000     0.338153350000     0.468100200000    -0.025934   
C174     C      0.092079110000     0.347773820000     0.006789385000    -0.070785   
C175     C      0.162087620000     0.257229030000     0.481319750000    -0.019039   
C176     C      0.170130640000     0.277918100000     0.492960065000     0.016776   
C177     C      0.152533860000     0.297048570000     0.493732630000    -0.030437   
C178     C      0.127219335000     0.295882015000     0.482341020000    -0.015643   
C179     C      0.120901385000     0.276260970000     0.468088565000     0.05504    
C180     C      0.108025535000     0.313824600000     0.484861670000    -0.007965   
C181     C      0.087088085000     0.316441650000     0.467950500000    -0.012724   
C182     C      0.081331350000     0.296960325000     0.452546800000     0.021838   
C183     C      0.098211975000     0.277130785000     0.453114250000    -0.075003   
C184     C      0.108834170000     0.328523130000     0.004702210000    -0.007753   
C185     C      0.072940200000     0.352322070000     0.488882600000     0.056184   
C186     C      0.137195810000     0.256033125000     0.469722100000    -0.078117   
C187     C      0.031038855000     0.367834420000     0.002928735000    -0.000223   
C188     C      0.055104455000     0.294177700000     0.438969670000    -0.061547   
C189     C      0.059248925000     0.291540830000     0.412292330000    -0.14325    
C190     C      0.062135270000     0.349190100000     0.445379150000    -0.036377   
C191     C      0.077465765000     0.371561380000     0.439134500000    -0.151271   
C192     C      0.199857190000     0.263964770000     0.023831725000    -0.087553   
C193     C      0.102602675000     0.497572150000     0.109329505000     0.022477   
C194     C      0.098884130000     0.327858030000     0.121252250000     0.139936   
C195     C      0.101992130000     0.471307350000     0.111156290000     0.044013   
C196     C      0.099430970000     0.354111600000     0.119399125000    -0.13254    
C197     C      0.101499280000     0.449454950000     0.112679885000     0.005711   
C198     C      0.099895290000     0.375973165000     0.117855745000    -0.109857   
C199     C      0.100926510000     0.423601150000     0.114496985000    -0.003155   
C200     C      0.100451320000     0.401821375000     0.116029220000     0.013683   
C201     C      0.354392300000     0.053975740000     0.062014995000     0.439961   
C202     C      0.340588630000     0.044047920000     0.393837480000     0.253511   
C203     C      0.352256120000     0.052439405000     0.035989345000     0.997419   
C204     C      0.342724770000     0.045584255000     0.419863135000    -0.082077   
C205     C      0.350477900000     0.051160465000     0.014324305000    -0.344142   
C206     C      0.344502950000     0.046863150000     0.441528170000     0.07162    
C207     C      0.348379550000     0.049651295000     0.488758775000     0.13896    
C208     C      0.346601365000     0.048372365000     0.467093700000    -0.096581   
C209     C      0.099788860000     0.242880670000     0.123337715000    -0.391988   
C210     C      0.100139850000     0.221252500000     0.120274170000     0.225659   
C211     C      0.100911565000     0.174305200000     0.113658940000     0.046493   
C212     C      0.101330645000     0.148839650000     0.110066475000    -0.015954   
C213     C      0.101681545000     0.127217200000     0.107003755000     0.009322   
C214     C      0.099382675000     0.268712650000     0.127029450000     1.16006    
C215     C      0.102091140000     0.101391145000     0.103311775000     0.075048   
C216     C      0.100555420000     0.195786790000     0.116682775000    -0.104372   
C217     C      0.156909170000     0.279589300000     0.251919650000    -0.102807   
C218     C      0.110211410000     0.329359175000     0.232229190000    -0.419538   
C219     C      0.102061840000     0.291044385000     0.206730815000     0.312738   
C220     C      0.132226810000     0.318014250000     0.247502820000    -0.117896   
C221     C      0.116849295000     0.279514370000     0.227417230000    -0.055574   
C222     C      0.140829450000     0.317971600000     0.198477490000    -0.582945   
C223     C      0.110875120000     0.317608980000     0.206588670000     1.6322     
C224     C      0.141592740000     0.294473320000     0.235567285000    -0.019972   
C225     C      0.157885610000     0.301234500000     0.213699200000     0.062113   
C226     C      0.077639500000     0.348811850000     0.194674800000    -1.98415    
C227     C      0.094829670000     0.327452850000     0.165032650000    -7.41071    
C228     C      0.094991855000     0.330853750000     0.189360185000    -0.484325   
C229     C      0.149242775000     0.277392400000     0.275209575000     0.094212   
C230     C      0.167387575000     0.257885450000     0.244655950000     0.058231   
C231     C      0.082888250000     0.328320475000     0.245385915000     0.118772   
C232     C      0.080086180000     0.348254900000     0.263730250000    -0.185161   
C233     C      0.071843850000     0.284258050000     0.207339690000     0.006247   
C234     C      0.056356960000     0.287714150000     0.184200125000    -0.166478   
C235     C      0.339040700000     0.448956650000     0.352265600000    -0.065743   
C236     C      0.271823200000     0.375264750000     0.344829915000     0.188741   
C237     C      0.391628175000     0.005311015000     0.358052800000     0.407297   
C238     C      0.291666330000     0.394381585000     0.346942300000    -0.189132   
C239     C      0.371796280000     0.486179950000     0.355912180000    -0.184813   
C240     C      0.307031650000     0.411215950000     0.348645400000    -0.028799   
C241     C      0.356445520000     0.469334275000     0.354220450000     0.061996   
C242     C      0.324447500000     0.431582900000     0.350614580000    -0.064445   
C243     C      0.347703750000     0.046370310000     0.143393400000     0.42414    
C244     C      0.347807525000     0.051437780000     0.312375785000     0.269035   
C245     C      0.347714350000     0.047149365000     0.169560225000    -0.139606   
C246     C      0.347770400000     0.050643020000     0.286208870000    -0.09249    
C247     C      0.347718600000     0.047799265000     0.191318800000     0.072196   
C248     C      0.347745300000     0.049987180000     0.264450200000     0.038512   
C249     C      0.347720750000     0.048561535000     0.217002660000    -0.030504   
C250     C      0.347729115000     0.049212780000     0.238766385000    -0.011629   
C251     C      0.090528800000     0.298186750000     0.327853700000     3.44529    
C252     C      0.133203685000     0.322730300000     0.330198375000     0.233991   
C253     C      0.270463200000     0.298109830000     0.320473650000     10.6292    
C254     C      0.161373975000     0.323115765000     0.331860425000    -0.526545   
C255     C      0.256546550000     0.302935000000     0.341413750000    -7.60748    
C256     C      0.175762450000     0.301912950000     0.333866565000     0.307517   
C257     C      0.227919750000     0.303182100000     0.340218125000     2.60744    
C258     C      0.204103485000     0.302789050000     0.337825000000    -1.43669    
C259     C      0.342058035000     0.301489385000     0.344209250000    -47.5184    
C260     C      0.270345900000     0.306559600000     0.362869700000     14.3812    
C261     C      0.162752135000     0.280150200000     0.331469120000    -1.0356     
C262     C      0.298180520000     0.305344880000     0.363128065000    -29.3402    
C263     C      0.135086950000     0.279730150000     0.328753550000     0.261274   
C264     C      0.253916620000     0.317378135000     0.288712800000     0.886539   
C265     C      0.236800775000     0.314830850000     0.266458275000    -0.442833   
C266     C      0.184266750000     0.348957420000     0.309580800000     0.031331   
C267     C      0.202133090000     0.370572950000     0.310576500000    -0.176367   
C268     C      0.312565250000     0.300513030000     0.342454525000     91.5434    
C269     C      0.119959080000     0.300505200000     0.328605500000    -1.32521    
C270     C      0.298455900000     0.295321050000     0.320999025000    -15.5152    
C271     C      0.265059770000     0.041585880000     0.070403950000    -0.081917   
C272     C      0.257012100000     0.059034370000     0.086802380000    -0.023539   
C273     C      0.234102710000     0.054605190000     0.101309180000     0.013516   
C274     C      0.114002215000     0.033273700000     0.154285460000     0.239117   
C275     C      0.142798050000     0.036149290000     0.148837210000    -0.139295   
C276     C      0.154149575000     0.019024035000     0.133730320000     0.01429    
C277     C      0.177480670000     0.023450530000     0.121434270000    -0.072107   
C278     C      0.191381365000     0.044534455000     0.125968550000     0.063988   
C279     C      0.182283600000     0.060391255000     0.143270910000    -0.112699   
C280     C      0.157973485000     0.056688505000     0.154828000000     0.093443   
C281     C      0.269932600000     0.081141480000     0.087866165000     0.030765   
C282     C      0.293766700000     0.084299440000     0.074911650000    -0.12176    
C283     C      0.287320800000     0.045562930000     0.056026705000    -0.055708   
C284     C      0.214818015000     0.050260960000     0.112886375000    -0.027066   
C285     C      0.303799450000     0.065548150000     0.060591620000    -0.033162   
C286     C      0.332717270000     0.064578665000     0.053903485000     0.341412   
C287     C      0.307610000000     0.107400825000     0.075400770000     0.301566   
C288     C      0.257469030000     0.101396865000     0.101953330000    -0.105221   
C289     C      0.265718150000     0.100762660000     0.128124350000    -0.02016    
C290     C      0.254642070000     0.122115440000     0.141542850000    -0.158037   
C291     C      0.149152665000     0.075151190000     0.172843290000    -0.129491   
C292     C      0.147776840000     0.064971930000     0.197758600000    -0.006324   
C293     C      0.138977335000     0.083701140000     0.215700200000    -0.164901   
C294     C      0.250237200000     0.019003620000     0.068436040000     0.299668   
C295     C      0.293098700000     0.028953325000     0.036068150000     0.329366   
C296     C      0.185022620000     0.006764400000     0.102316825000     0.242618   
C297     C      0.331939370000     0.148710850000     0.352141300000     0.065009   
C298     C      0.332414300000     0.170077310000     0.350795350000    -0.120545   
C299     C      0.334100485000     0.245941450000     0.346016600000     0.815276   
C300     C      0.330253200000     0.072846720000     0.356920100000    -0.694658   
C301     C      0.330867680000     0.100492885000     0.355178625000     0.207052   
C302     C      0.333486000000     0.218295290000     0.347758050000    -0.352723   
C303     C      0.331342430000     0.121853410000     0.353833100000    -0.125378   
C304     C      0.333011270000     0.196934775000     0.349103570000     0.144508   
C305     C      0.461138800000     0.077156470000     0.145698635000     0.005043   
C306     C      0.424141700000     0.470909450000     0.088184745000    -0.056463   
C307     C      0.416364300000     0.461430100000     0.063582350000    -0.140659   
C308     C      0.442131350000     0.097870080000     0.150413990000    -0.046804   
C309     C      0.453671700000     0.118146175000     0.165815000000    -0.145692   
C310     C      0.037419915000     0.084968240000     0.128214400000    -0.029141   
C311     C      0.033906280000     0.097082930000     0.104474485000    -0.172652   
C312     C      0.483301000000     0.463558735000     0.081643695000    -0.030873   
C313     C      0.492175815000     0.455561300000     0.106115525000    -0.210336   
C314     C      0.406482430000     0.020538450000     0.078299575000     0.020047   
C315     C      0.407996550000     0.030038080000     0.053210060000    -0.156304   
C316     C      0.420606750000     0.066585960000     0.105537660000     0.177575   
C317     C      0.027795135000     0.031792280000     0.102486500000     0.294649   
C318     C      0.478862750000     0.072311590000     0.164345600000     0.01466    
C319     C      0.005942345000     0.071575435000     0.159127680000     0.026561   
C320     C      0.013506355000     0.070221670000     0.135309680000     0.014407   
C321     C      0.494297830000     0.060588255000     0.118844360000    -0.018133   
C322     C      0.467041650000     0.066290945000     0.122716635000     0.022806   
C323     C      0.000697195000     0.041825970000     0.102778690000    -0.047367   
C324     C      0.480111865000     0.028450380000     0.091623760000     0.004107   
C325     C      0.453067000000     0.034237215000     0.094562895000     0.021631   
C326     C      0.447308125000     0.056324565000     0.106389480000    -0.057832   
C327     C      0.486104650000     0.007352770000     0.079447030000     0.021603   
C328     C      0.470380500000     0.487786350000     0.083071210000    -0.014416   
C329     C      0.443070150000     0.491790900000     0.087002820000     0.001687   
C330     C      0.433967000000     0.015729850000     0.088200090000    -0.032535   
S331     S      0.115166605000     0.349931120000     0.330125780000     0.288355   
S332     S      0.253318650000     0.312796475000     0.389513225000    -3.98048    
S333     S      0.180691570000     0.253192750000     0.331980600000     0.699134   
S334     S      0.314882050000     0.284554750000     0.295156950000     4.0499     
I335     I      0.464516670000     0.068937080000     0.199668140000    -0.114374   
I336     I      0.034735205000     0.074763245000     0.186670275000    -0.088263   
I337     I      0.000343560000     0.009724780000     0.044916140000    -0.092768   
N338     N      0.055486025000     0.372130900000     0.490391375000    -0.165156   
N339     N      0.195750370000     0.279484035000     0.004079700000    -0.133643   
N340     N      0.065199055000     0.354246600000     0.175001160000     0.049238   
N341     N      0.076390580000     0.341845570000     0.156194760000     1.13249    
N342     N      0.153308930000     0.255378400000     0.281173170000    -0.198384   
N343     N      0.164500460000     0.242977380000     0.262366800000    -0.145188   
O344     O      0.098295070000     0.257215100000     0.170949965000    -0.306822   
O345     O      0.147158500000     0.319491050000     0.273006900000    -0.222524   
O346     O      0.102840630000     0.325908300000     0.277804225000    -0.243307   
O347     O      0.102977165000     0.293401600000     0.155190020000    -0.572352   
O348     O      0.144441320000     0.217909550000     0.453463225000    -0.213662   
O349     O      0.102229415000     0.228087085000     0.465179850000    -0.222679   
O350     O      0.127719100000     0.370379150000     0.021338045000    -0.2111     
O351     O      0.085507200000     0.380556675000     0.033054650000    -0.210852   
O352     O      0.079981545000     0.009323775000     0.105871745000    -0.661061   
O353     O      0.125755220000     0.008813145000     0.111216850000    -0.433736   
O354     O      0.101118565000     0.314559600000     0.101864725000    -0.668017   
O355     O      0.096217590000     0.318156500000     0.142269685000     0.21547    
O356     O      0.375354825000     0.063948085000     0.071959615000    -0.364173   
O357     O      0.335306970000     0.045353545000     0.074941875000    -0.820744   
O358     O      0.350308200000     0.025628015000     0.382583750000    -0.625657   
O359     O      0.328991850000     0.061117695000     0.382219800000    -0.094488   
O360     O      0.109919010000     0.087727480000     0.120500865000    -0.769636   
O361     O      0.094617040000     0.092320555000     0.082864315000    -0.459622   
O362     O      0.106856785000     0.277783200000     0.147476900000    -0.414639   
O363     O      0.091554805000     0.282376230000     0.109840340000    -2.31788    
O364     O      0.246307550000     0.381778800000     0.342817875000    -0.238367   
O365     O      0.417137535000     0.498794735000     0.360242750000    -0.213448   
O366     O      0.279858320000     0.352603080000     0.345184850000    -0.364101   
O367     O      0.383586750000     0.027970435000     0.357875750000    -0.886236   
O368     O      0.369337170000     0.052163975000     0.132003980000    -0.742161   
O369     O      0.326065800000     0.039888820000     0.131755160000    -0.488122   
O370     O      0.340685200000     0.070840865000     0.323566250000    -0.490367   
O371     O      0.354792150000     0.032682125000     0.324212150000    -0.336348   
O372     O      0.076528015000     0.311850370000     0.341305550000    -1.01596    
O373     O      0.356098600000     0.286713850000     0.332021300000     8.9842     
O374     O      0.079196340000     0.281934250000     0.314724700000    -1.01791    
O375     O      0.272638950000     0.320491550000     0.408628200000     0.444606   
O376     O      0.233213065000     0.332126750000     0.385687770000     0.531151   
O377     O      0.237459375000     0.288394550000     0.398233650000     0.325049   
O378     O      0.190210090000     0.248951800000     0.356824220000    -0.271031   
O379     O      0.163336665000     0.232978580000     0.323904485000    -0.28411    
O380     O      0.353430250000     0.316629975000     0.358602150000     6.11187    
O381     O      0.207401365000     0.254664650000     0.314305780000    -0.348271   
O382     O      0.328671750000     0.261755600000     0.300837150000    -1.7515     
O383     O      0.295927850000     0.279823720000     0.274850450000    -0.907192   
O384     O      0.337627770000     0.304298000000     0.286683150000    -1.37127    
O385     O      0.095187985000     0.349401830000     0.310200350000    -0.228482   
O386     O      0.100697480000     0.352910900000     0.353081525000    -0.174521   
O387     O      0.134919940000     0.373542665000     0.326891100000    -0.271901   
O388     O      0.256199775000     0.295197250000     0.299558600000    -2.65893    
O389     O      0.175020920000     0.344276550000     0.332570730000    -0.027573   
O390     O      0.100780620000     0.050313115000     0.163326160000    -0.250966   
O391     O      0.102002280000     0.014994460000     0.146345185000    -0.350464   
O392     O      0.341133800000     0.046332975000     0.043052585000    -0.986085   
O393     O      0.349399475000     0.079874755000     0.062086215000    -0.328245   
O394     O      0.313637970000     0.116936600000     0.094221940000    -0.271959   
O395     O      0.314049570000     0.118061900000     0.054132660000    -0.299479   
O396     O      0.239614380000     0.013115595000     0.049692810000    -0.222627   
O397     O      0.248944075000     0.004366815000     0.088009695000    -0.326699   
O398     O      0.295111715000     0.007793035000     0.039446655000    -0.241284   
O399     O      0.296672165000     0.037816020000     0.013418150000    -0.276631   
O400     O      0.185953320000     0.485627200000     0.106107850000    -0.204405   
O401     O      0.189289720000     0.015082690000     0.079583885000    -0.29276    
O402     O      0.311992675000     0.259394230000     0.349501200000    -2.79777    
O403     O      0.352360950000     0.059393940000     0.353435500000    -0.310503   
O404     O      0.356771050000     0.257810550000     0.340936900000    -2.48212    
O405     O      0.307582600000     0.060977595000     0.361999800000    -0.404456   
O406     O      0.030876695000     0.009103730000     0.103534650000    -0.189027   
O407     O      0.410926970000     0.071726390000     0.125645370000    -0.324534   
O408     O      0.407190600000     0.070012710000     0.085736140000    -0.278266   
O409     O      0.047847750000     0.045678285000     0.100693055000    -0.327592   
Zn0      Zn     0.354781150000     0.297413020000     0.853741550000     11.6221    
Zn1      Zn     0.301684080000     0.302036435000     0.840145550000    -39.5627    
Zn2      Zn     0.320769280000     0.063419870000     0.841974050000     1.43201    
Zn3      Zn     0.363131950000     0.033491885000     0.863337650000     1.47173    
Zn4      Zn     0.322756170000     0.042749785000     0.593939965000     1.26074    
Zn5      Zn     0.377343415000     0.055933170000     0.609538385000     1.26107    
Zn6      Zn     0.114946360000     0.307540050000     0.647817350000     1.0354     
Zn7      Zn     0.093337015000     0.291723000000     0.599918740000     2.12308    
Zn8      Zn     0.092782675000     0.296690850000     0.829890300000    -0.940459   
Zn9      Zn     0.152107820000     0.298732150000     0.830501615000     1.44961    
Zn10     Zn     0.100891015000     0.075228385000     0.605282975000     1.28979    
Zn11     Zn     0.096796765000     0.023481950000     0.612348660000     1.29637    
H12      H      0.030766065000     0.360645385000     0.645051050000    -0.479552   
H13      H      0.079845735000     0.363411875000     0.640186520000     1.36086    
H14      H      0.110241265000     0.341763375000     0.666874035000    -0.301682   
H15      H      0.042412255000     0.315438200000     0.704279050000     0.055738   
H16      H      0.012204185000     0.336651750000     0.677154975000     0.247367   
H17      H      0.130654735000     0.260675580000     0.707407190000     0.063838   
H18      H      0.204077765000     0.249085650000     0.766602785000     0.031226   
H19      H      0.176751690000     0.228049770000     0.795070200000     0.03739    
H20      H      0.127934590000     0.233937050000     0.795878000000     0.002275   
H21      H      0.106220970000     0.262129550000     0.769134650000     0.073182   
H22      H      0.132003160000     0.361580350000     0.717879890000     0.065881   
H23      H      0.118834125000     0.403040400000     0.725383565000     0.008603   
H24      H      0.074705355000     0.412388200000     0.742623880000     0.056025   
H25      H      0.043569790000     0.380156070000     0.752405700000     0.02844    
H26      H      0.056335670000     0.338597800000     0.744776370000     0.073104   
H27      H      0.173765940000     0.314860550000     0.738332735000     0.064546   
H28      H      0.205966650000     0.333046850000     0.712239920000     0.008147   
H29      H      0.239927860000     0.308724050000     0.691912875000     0.034454   
H30      H      0.240786450000     0.265317000000     0.697278530000     0.025049   
H31      H      0.208416350000     0.246655465000     0.723179550000     0.053397   
H32      H      0.123077900000     0.325490830000     0.518889845000     0.038505   
H33      H      0.175005480000     0.241894600000     0.981697150000     0.043094   
H34      H      0.159181790000     0.312956900000     0.502776565000     0.034742   
H35      H      0.093534200000     0.262379550000     0.941473650000     0.062778   
H36      H      0.064414025000     0.387874930000     0.994924350000     0.088457   
H37      H      0.018067040000     0.383706870000     0.502160370000     0.016163   
H38      H      0.035452675000     0.363940650000     0.521754980000     0.037114   
H39      H      0.020091520000     0.352783550000     0.994614200000    -0.00296    
H40      H      0.072481095000     0.305563700000     0.905665400000     0.069125   
H41      H      0.068293385000     0.274144175000     0.907929630000     0.053771   
H42      H      0.039662395000     0.292669700000     0.902981550000     0.027201   
H43      H      0.044782480000     0.278335050000     0.945196550000     0.020575   
H44      H      0.040605345000     0.308412350000     0.942832770000     0.01469    
H45      H      0.073002875000     0.386365100000     0.951469630000     0.061056   
H46      H      0.099323150000     0.368104250000     0.939359650000     0.069032   
H47      H      0.071535855000     0.377176000000     0.921118000000     0.055772   
H48      H      0.064915895000     0.337409230000     0.929946780000     0.033447   
H49      H      0.040492705000     0.353217065000     0.946969775000     0.014218   
H50      H      0.201986500000     0.296474280000     0.507805290000     0.067956   
H51      H      0.220393985000     0.266379050000     0.531073330000     0.029009   
H52      H      0.197681800000     0.245242315000     0.518172860000     0.045535   
H53      H      0.185316580000     0.268146150000     0.538007320000     0.040736   
H54      H      0.124665565000     0.316004400000     0.765544175000     0.103052   
H55      H      0.103394200000     0.277295470000     0.742747275000     0.02719    
H56      H      0.149512960000     0.330232350000     0.749436450000     0.08642    
H57      H      0.122699125000     0.261434250000     0.721528650000     0.069418   
H58      H      0.148867475000     0.336202300000     0.700089050000     0.146345   
H59      H      0.143071620000     0.312349950000     0.679717570000     0.161114   
H60      H      0.176889880000     0.310012300000     0.719108865000     0.078479   
H61      H      0.163044470000     0.285246250000     0.703051520000     0.014264   
H62      H      0.076122195000     0.359215615000     0.710718825000     0.643648   
H63      H      0.108390780000     0.316810280000     0.654664010000     1.37845    
H64      H      0.139738140000     0.289999125000     0.786704800000     0.013532   
H65      H      0.173692800000     0.252853600000     0.727098250000     0.012253   
H66      H      0.115702680000     0.348257480000     0.730408265000     0.156841   
H67      H      0.109828400000     0.282575430000     0.690248115000    -0.215168   
H68      H      0.096353330000     0.347473100000     0.777184550000     0.159498   
H69      H      0.080631795000     0.365629200000     0.755013585000     0.123979   
H70      H      0.060650970000     0.346627175000     0.772825900000     0.072458   
H71      H      0.065529540000     0.329546125000     0.733272525000     0.031518   
H72      H      0.080680445000     0.311337235000     0.754614470000     0.016631   
H73      H      0.049437750000     0.306175200000     0.682662450000     0.116327   
H74      H      0.068647705000     0.282568930000     0.668753965000     0.163865   
H75      H      0.038219540000     0.276482850000     0.684020015000     0.068741   
H76      H      0.070797035000     0.265061320000     0.710923925000     0.024335   
H77      H      0.060966175000     0.292862030000     0.721943170000     0.036608   
H78      H      0.308831650000     0.307822850000     0.879715530000     6.56903    
H79      H      0.221154215000     0.287343530000     0.888205050000    -0.04149    
H80      H      0.200207550000     0.260041835000     0.798928915000     0.186623   
H81      H      0.327410450000     0.316047520000     0.777490080000     0.318455   
H82      H      0.122514050000     0.387109750000     0.825734300000     0.153658   
H83      H      0.273905750000     0.324092865000     0.783655550000    -0.193835   
H84      H      0.244284810000     0.330594120000     0.800649525000    -0.263986   
H85      H      0.216818290000     0.307829100000     0.770920250000     0.182652   
H86      H      0.125186160000     0.262985615000     0.827729150000    -0.019126   
H87      H      0.234279635000     0.332274885000     0.758108400000     0.11173    
H88      H      0.246542975000     0.302547500000     0.753710715000     0.205464   
H89      H      0.167195710000     0.352428975000     0.797334880000     0.053121   
H90      H      0.196118160000     0.334025550000     0.802184435000     0.044859   
H91      H      0.219487500000     0.367394650000     0.822519750000     0.090444   
H92      H      0.209578560000     0.374337100000     0.792618700000     0.059565   
H93      H      0.190733835000     0.386078120000     0.817233150000     0.085566   
H94      H      0.193842815000     0.076186400000     0.647065520000     0.056703   
H95      H      0.143544180000     0.002842850000     0.629638075000     0.112876   
H96      H      0.323372300000     0.133718850000     0.556727575000     0.153055   
H97      H      0.262349650000     0.138665185000     0.633964200000     0.061868   
H98      H      0.232461035000     0.122200260000     0.640621400000     0.058093   
H99      H      0.261002450000     0.121437275000     0.660345950000     0.058169   
H100     H      0.258024350000     0.084480040000     0.636267425000     0.02815    
H101     H      0.287837180000     0.100680100000     0.629931950000     0.034582   
H102     H      0.262753070000     0.118669500000     0.594387480000     0.062963   
H103     H      0.235345170000     0.100600700000     0.600390710000     0.055237   
H104     H      0.153595075000     0.098389475000     0.716513770000     0.06204    
H105     H      0.118980875000     0.090733590000     0.710780800000     0.073994   
H106     H      0.137721570000     0.075780010000     0.733456390000     0.064611   
H107     H      0.133514315000     0.050064260000     0.698213560000     0.049579   
H108     H      0.167750600000     0.058150365000     0.703007670000     0.030396   
H109     H      0.163515200000     0.090089845000     0.673509225000     0.057959   
H110     H      0.129812200000     0.083066755000     0.667427900000     0.089136   
H111     H      0.239190750000     0.489087550000     0.584349030000     0.171379   
H112     H      0.300635665000     0.024970335000     0.501289825000     0.164678   
H113     H      0.192150235000     0.001836435000     0.567638790000     0.167077   
H114     H      0.434032470000     0.458237470000     0.552340845000     0.048599   
H115     H      0.405567600000     0.444532275000     0.565464890000     0.039401   
H116     H      0.403206700000     0.473994750000     0.554209610000     0.048918   
H117     H      0.433428850000     0.456555130000     0.598503485000     0.031778   
H118     H      0.405882250000     0.475432100000     0.598160965000     0.027819   
H119     H      0.450427000000     0.115160400000     0.684845640000     0.066476   
H120     H      0.475372050000     0.120554870000     0.662886725000     0.06029    
H121     H      0.443012500000     0.134748920000     0.661667230000     0.051325   
H122     H      0.436266720000     0.105630830000     0.633330315000     0.054736   
H123     H      0.424206600000     0.091599210000     0.659844680000     0.067509   
H124     H      0.028311430000     0.084477580000     0.590226895000     0.081588   
H125     H      0.018060565000     0.110546700000     0.605680405000     0.072682   
H126     H      0.052786825000     0.105978110000     0.599757535000     0.065684   
H127     H      0.040503445000     0.099483215000     0.641388850000     0.045672   
H128     H      0.056097985000     0.074576260000     0.628860175000     0.001847   
H129     H      0.008293510000     0.467182070000     0.613068335000     0.111766   
H130     H      0.475236700000     0.455962720000     0.618612800000     0.073953   
H131     H      0.000079630000     0.437292300000     0.604935965000     0.087395   
H132     H      0.469905250000     0.450114700000     0.573642240000     0.023623   
H133     H      0.001238585000     0.463904150000     0.570271985000     0.050667   
H134     H      0.422397900000     0.044800930000     0.552114215000     0.08311    
H135     H      0.414619775000     0.015808400000     0.540885295000     0.060751   
H136     H      0.387950350000     0.036250295000     0.547444515000     0.046945   
H137     H      0.393297585000     0.005029930000     0.577343880000     0.007754   
H138     H      0.395910050000     0.031818555000     0.590425515000    -0.092089   
C139     C      0.122800575000     0.318549600000     0.765320865000     0.061482   
C140     C      0.102142630000     0.279804080000     0.673161950000     0.664252   
C141     C      0.071722335000     0.352690300000     0.654001475000    -4.94829    
C142     C      0.088903740000     0.340376200000     0.669074120000     7.6295     
C143     C      0.078500800000     0.326098380000     0.686752230000     1.12387    
C144     C      0.050747895000     0.325405550000     0.689987465000    -0.005355   
C145     C      0.033596125000     0.337623350000     0.674828425000    -0.858299   
C146     C      0.044065420000     0.351167320000     0.656760035000     2.08455    
C147     C      0.102664090000     0.322452875000     0.725308535000    -0.100093   
C148     C      0.117718525000     0.309115915000     0.741564550000     0.139478   
C149     C      0.128214050000     0.286922600000     0.734871565000    -0.015962   
C150     C      0.122735225000     0.277831500000     0.712412760000    -0.205585   
C151     C      0.106895590000     0.290363430000     0.696496600000     0.100074   
C152     C      0.096614735000     0.312869800000     0.702821640000    -1.35186    
C153     C      0.170815470000     0.267802120000     0.750562900000    -0.045154   
C154     C      0.182714880000     0.252158200000     0.766683050000     0.056739   
C155     C      0.167336750000     0.240212915000     0.783000800000     0.087119   
C156     C      0.139841080000     0.243714080000     0.783623370000     0.1884     
C157     C      0.127663950000     0.259637175000     0.768368550000    -0.131448   
C158     C      0.142809375000     0.271791900000     0.751758365000     0.112241   
C159     C      0.095124470000     0.347194820000     0.730915130000     0.206983   
C160     C      0.112711170000     0.365497700000     0.725511180000    -0.287013   
C161     C      0.105284730000     0.388949335000     0.729658290000     0.06934    
C162     C      0.080373445000     0.394218830000     0.739333720000    -0.105972   
C163     C      0.062841520000     0.376041800000     0.744882775000    -0.023451   
C164     C      0.070128785000     0.352562550000     0.740630050000    -0.214742   
C165     C      0.188310265000     0.279152250000     0.732914400000     0.08129    
C166     C      0.187828450000     0.303635050000     0.729380665000    -0.182201   
C167     C      0.206347765000     0.314162150000     0.714614450000     0.013855   
C168     C      0.225443465000     0.300415900000     0.703055815000    -0.070205   
C169     C      0.225900575000     0.276057720000     0.706059010000     0.006161   
C170     C      0.207449690000     0.265491300000     0.720830000000    -0.084661   
C171     C      0.127386125000     0.233008070000     0.962006500000     0.262834   
C172     C      0.102118215000     0.366450050000     0.522384105000     0.261028   
C173     C      0.072631405000     0.338153350000     0.968100200000    -0.025934   
C174     C      0.092079110000     0.347773820000     0.506789385000    -0.070785   
C175     C      0.162087620000     0.257229030000     0.981319750000    -0.019039   
C176     C      0.170130640000     0.277918100000     0.992960065000     0.016776   
C177     C      0.152533860000     0.297048570000     0.993732630000    -0.030437   
C178     C      0.127219335000     0.295882015000     0.982341020000    -0.015643   
C179     C      0.120901385000     0.276260970000     0.968088565000     0.05504    
C180     C      0.108025535000     0.313824600000     0.984861670000    -0.007965   
C181     C      0.087088085000     0.316441650000     0.967950500000    -0.012724   
C182     C      0.081331350000     0.296960325000     0.952546800000     0.021838   
C183     C      0.098211975000     0.277130785000     0.953114250000    -0.075003   
C184     C      0.108834170000     0.328523130000     0.504702210000    -0.007753   
C185     C      0.072940200000     0.352322070000     0.988882600000     0.056184   
C186     C      0.137195810000     0.256033125000     0.969722100000    -0.078117   
C187     C      0.031038855000     0.367834420000     0.502928735000    -0.000223   
C188     C      0.055104455000     0.294177700000     0.938969670000    -0.061547   
C189     C      0.059248925000     0.291540830000     0.912292330000    -0.14325    
C190     C      0.062135270000     0.349190100000     0.945379150000    -0.036377   
C191     C      0.077465765000     0.371561380000     0.939134500000    -0.151271   
C192     C      0.199857190000     0.263964770000     0.523831725000    -0.087553   
C193     C      0.102602675000     0.497572150000     0.609329505000     0.022477   
C194     C      0.098884130000     0.327858030000     0.621252250000     0.139936   
C195     C      0.101992130000     0.471307350000     0.611156290000     0.044013   
C196     C      0.099430970000     0.354111600000     0.619399125000    -0.13254    
C197     C      0.101499280000     0.449454950000     0.612679885000     0.005711   
C198     C      0.099895290000     0.375973165000     0.617855745000    -0.109857   
C199     C      0.100926510000     0.423601150000     0.614496985000    -0.003155   
C200     C      0.100451320000     0.401821375000     0.616029220000     0.013683   
C201     C      0.354392300000     0.053975740000     0.562014995000     0.439961   
C202     C      0.340588630000     0.044047920000     0.893837480000     0.253511   
C203     C      0.352256120000     0.052439405000     0.535989345000     0.997419   
C204     C      0.342724770000     0.045584255000     0.919863135000    -0.082077   
C205     C      0.350477900000     0.051160465000     0.514324305000    -0.344142   
C206     C      0.344502950000     0.046863150000     0.941528170000     0.07162    
C207     C      0.348379550000     0.049651295000     0.988758775000     0.13896    
C208     C      0.346601365000     0.048372365000     0.967093700000    -0.096581   
C209     C      0.099788860000     0.242880670000     0.623337715000    -0.391988   
C210     C      0.100139850000     0.221252500000     0.620274170000     0.225659   
C211     C      0.100911565000     0.174305200000     0.613658940000     0.046493   
C212     C      0.101330645000     0.148839650000     0.610066475000    -0.015954   
C213     C      0.101681545000     0.127217200000     0.607003755000     0.009322   
C214     C      0.099382675000     0.268712650000     0.627029450000     1.16006    
C215     C      0.102091140000     0.101391145000     0.603311775000     0.075048   
C216     C      0.100555420000     0.195786790000     0.616682775000    -0.104372   
C217     C      0.156909170000     0.279589300000     0.751919650000    -0.102807   
C218     C      0.110211410000     0.329359175000     0.732229190000    -0.419538   
C219     C      0.102061840000     0.291044385000     0.706730815000     0.312738   
C220     C      0.132226810000     0.318014250000     0.747502820000    -0.117896   
C221     C      0.116849295000     0.279514370000     0.727417230000    -0.055574   
C222     C      0.140829450000     0.317971600000     0.698477490000    -0.582945   
C223     C      0.110875120000     0.317608980000     0.706588670000     1.6322     
C224     C      0.141592740000     0.294473320000     0.735567285000    -0.019972   
C225     C      0.157885610000     0.301234500000     0.713699200000     0.062113   
C226     C      0.077639500000     0.348811850000     0.694674800000    -1.98415    
C227     C      0.094829670000     0.327452850000     0.665032650000    -7.41071    
C228     C      0.094991855000     0.330853750000     0.689360185000    -0.484325   
C229     C      0.149242775000     0.277392400000     0.775209575000     0.094212   
C230     C      0.167387575000     0.257885450000     0.744655950000     0.058231   
C231     C      0.082888250000     0.328320475000     0.745385915000     0.118772   
C232     C      0.080086180000     0.348254900000     0.763730250000    -0.185161   
C233     C      0.071843850000     0.284258050000     0.707339690000     0.006247   
C234     C      0.056356960000     0.287714150000     0.684200125000    -0.166478   
C235     C      0.339040700000     0.448956650000     0.852265600000    -0.065743   
C236     C      0.271823200000     0.375264750000     0.844829915000     0.188741   
C237     C      0.391628175000     0.005311015000     0.858052800000     0.407297   
C238     C      0.291666330000     0.394381585000     0.846942300000    -0.189132   
C239     C      0.371796280000     0.486179950000     0.855912180000    -0.184813   
C240     C      0.307031650000     0.411215950000     0.848645400000    -0.028799   
C241     C      0.356445520000     0.469334275000     0.854220450000     0.061996   
C242     C      0.324447500000     0.431582900000     0.850614580000    -0.064445   
C243     C      0.347703750000     0.046370310000     0.643393400000     0.42414    
C244     C      0.347807525000     0.051437780000     0.812375785000     0.269035   
C245     C      0.347714350000     0.047149365000     0.669560225000    -0.139606   
C246     C      0.347770400000     0.050643020000     0.786208870000    -0.09249    
C247     C      0.347718600000     0.047799265000     0.691318800000     0.072196   
C248     C      0.347745300000     0.049987180000     0.764450200000     0.038512   
C249     C      0.347720750000     0.048561535000     0.717002660000    -0.030504   
C250     C      0.347729115000     0.049212780000     0.738766385000    -0.011629   
C251     C      0.090528800000     0.298186750000     0.827853700000     3.44529    
C252     C      0.133203685000     0.322730300000     0.830198375000     0.233991   
C253     C      0.270463200000     0.298109830000     0.820473650000     10.6292    
C254     C      0.161373975000     0.323115765000     0.831860425000    -0.526545   
C255     C      0.256546550000     0.302935000000     0.841413750000    -7.60748    
C256     C      0.175762450000     0.301912950000     0.833866565000     0.307517   
C257     C      0.227919750000     0.303182100000     0.840218125000     2.60744    
C258     C      0.204103485000     0.302789050000     0.837825000000    -1.43669    
C259     C      0.342058035000     0.301489385000     0.844209250000    -47.5184    
C260     C      0.270345900000     0.306559600000     0.862869700000     14.3812    
C261     C      0.162752135000     0.280150200000     0.831469120000    -1.0356     
C262     C      0.298180520000     0.305344880000     0.863128065000    -29.3402    
C263     C      0.135086950000     0.279730150000     0.828753550000     0.261274   
C264     C      0.253916620000     0.317378135000     0.788712800000     0.886539   
C265     C      0.236800775000     0.314830850000     0.766458275000    -0.442833   
C266     C      0.184266750000     0.348957420000     0.809580800000     0.031331   
C267     C      0.202133090000     0.370572950000     0.810576500000    -0.176367   
C268     C      0.312565250000     0.300513030000     0.842454525000     91.5434    
C269     C      0.119959080000     0.300505200000     0.828605500000    -1.32521    
C270     C      0.298455900000     0.295321050000     0.820999025000    -15.5152    
C271     C      0.265059770000     0.041585880000     0.570403950000    -0.081917   
C272     C      0.257012100000     0.059034370000     0.586802380000    -0.023539   
C273     C      0.234102710000     0.054605190000     0.601309180000     0.013516   
C274     C      0.114002215000     0.033273700000     0.654285460000     0.239117   
C275     C      0.142798050000     0.036149290000     0.648837210000    -0.139295   
C276     C      0.154149575000     0.019024035000     0.633730320000     0.01429    
C277     C      0.177480670000     0.023450530000     0.621434270000    -0.072107   
C278     C      0.191381365000     0.044534455000     0.625968550000     0.063988   
C279     C      0.182283600000     0.060391255000     0.643270910000    -0.112699   
C280     C      0.157973485000     0.056688505000     0.654828000000     0.093443   
C281     C      0.269932600000     0.081141480000     0.587866165000     0.030765   
C282     C      0.293766700000     0.084299440000     0.574911650000    -0.12176    
C283     C      0.287320800000     0.045562930000     0.556026705000    -0.055708   
C284     C      0.214818015000     0.050260960000     0.612886375000    -0.027066   
C285     C      0.303799450000     0.065548150000     0.560591620000    -0.033162   
C286     C      0.332717270000     0.064578665000     0.553903485000     0.341412   
C287     C      0.307610000000     0.107400825000     0.575400770000     0.301566   
C288     C      0.257469030000     0.101396865000     0.601953330000    -0.105221   
C289     C      0.265718150000     0.100762660000     0.628124350000    -0.02016    
C290     C      0.254642070000     0.122115440000     0.641542850000    -0.158037   
C291     C      0.149152665000     0.075151190000     0.672843290000    -0.129491   
C292     C      0.147776840000     0.064971930000     0.697758600000    -0.006324   
C293     C      0.138977335000     0.083701140000     0.715700200000    -0.164901   
C294     C      0.250237200000     0.019003620000     0.568436040000     0.299668   
C295     C      0.293098700000     0.028953325000     0.536068150000     0.329366   
C296     C      0.185022620000     0.006764400000     0.602316825000     0.242618   
C297     C      0.331939370000     0.148710850000     0.852141300000     0.065009   
C298     C      0.332414300000     0.170077310000     0.850795350000    -0.120545   
C299     C      0.334100485000     0.245941450000     0.846016600000     0.815276   
C300     C      0.330253200000     0.072846720000     0.856920100000    -0.694658   
C301     C      0.330867680000     0.100492885000     0.855178625000     0.207052   
C302     C      0.333486000000     0.218295290000     0.847758050000    -0.352723   
C303     C      0.331342430000     0.121853410000     0.853833100000    -0.125378   
C304     C      0.333011270000     0.196934775000     0.849103570000     0.144508   
C305     C      0.461138800000     0.077156470000     0.645698635000     0.005043   
C306     C      0.424141700000     0.470909450000     0.588184745000    -0.056463   
C307     C      0.416364300000     0.461430100000     0.563582350000    -0.140659   
C308     C      0.442131350000     0.097870080000     0.650413990000    -0.046804   
C309     C      0.453671700000     0.118146175000     0.665815000000    -0.145692   
C310     C      0.037419915000     0.084968240000     0.628214400000    -0.029141   
C311     C      0.033906280000     0.097082930000     0.604474485000    -0.172652   
C312     C      0.483301000000     0.463558735000     0.581643695000    -0.030873   
C313     C      0.492175815000     0.455561300000     0.606115525000    -0.210336   
C314     C      0.406482430000     0.020538450000     0.578299575000     0.020047   
C315     C      0.407996550000     0.030038080000     0.553210060000    -0.156304   
C316     C      0.420606750000     0.066585960000     0.605537660000     0.177575   
C317     C      0.027795135000     0.031792280000     0.602486500000     0.294649   
C318     C      0.478862750000     0.072311590000     0.664345600000     0.01466    
C319     C      0.005942345000     0.071575435000     0.659127680000     0.026561   
C320     C      0.013506355000     0.070221670000     0.635309680000     0.014407   
C321     C      0.494297830000     0.060588255000     0.618844360000    -0.018133   
C322     C      0.467041650000     0.066290945000     0.622716635000     0.022806   
C323     C      0.000697195000     0.041825970000     0.602778690000    -0.047367   
C324     C      0.480111865000     0.028450380000     0.591623760000     0.004107   
C325     C      0.453067000000     0.034237215000     0.594562895000     0.021631   
C326     C      0.447308125000     0.056324565000     0.606389480000    -0.057832   
C327     C      0.486104650000     0.007352770000     0.579447030000     0.021603   
C328     C      0.470380500000     0.487786350000     0.583071210000    -0.014416   
C329     C      0.443070150000     0.491790900000     0.587002820000     0.001687   
C330     C      0.433967000000     0.015729850000     0.588200090000    -0.032535   
S331     S      0.115166605000     0.349931120000     0.830125780000     0.288355   
S332     S      0.253318650000     0.312796475000     0.889513225000    -3.98048    
S333     S      0.180691570000     0.253192750000     0.831980600000     0.699134   
S334     S      0.314882050000     0.284554750000     0.795156950000     4.0499     
I335     I      0.464516670000     0.068937080000     0.699668140000    -0.114374   
I336     I      0.034735205000     0.074763245000     0.686670275000    -0.088263   
I337     I      0.000343560000     0.009724780000     0.544916140000    -0.092768   
N338     N      0.055486025000     0.372130900000     0.990391375000    -0.165156   
N339     N      0.195750370000     0.279484035000     0.504079700000    -0.133643   
N340     N      0.065199055000     0.354246600000     0.675001160000     0.049238   
N341     N      0.076390580000     0.341845570000     0.656194760000     1.13249    
N342     N      0.153308930000     0.255378400000     0.781173170000    -0.198384   
N343     N      0.164500460000     0.242977380000     0.762366800000    -0.145188   
O344     O      0.098295070000     0.257215100000     0.670949965000    -0.306822   
O345     O      0.147158500000     0.319491050000     0.773006900000    -0.222524   
O346     O      0.102840630000     0.325908300000     0.777804225000    -0.243307   
O347     O      0.102977165000     0.293401600000     0.655190020000    -0.572352   
O348     O      0.144441320000     0.217909550000     0.953463225000    -0.213662   
O349     O      0.102229415000     0.228087085000     0.965179850000    -0.222679   
O350     O      0.127719100000     0.370379150000     0.521338045000    -0.2111     
O351     O      0.085507200000     0.380556675000     0.533054650000    -0.210852   
O352     O      0.079981545000     0.009323775000     0.605871745000    -0.661061   
O353     O      0.125755220000     0.008813145000     0.611216850000    -0.433736   
O354     O      0.101118565000     0.314559600000     0.601864725000    -0.668017   
O355     O      0.096217590000     0.318156500000     0.642269685000     0.21547    
O356     O      0.375354825000     0.063948085000     0.571959615000    -0.364173   
O357     O      0.335306970000     0.045353545000     0.574941875000    -0.820744   
O358     O      0.350308200000     0.025628015000     0.882583750000    -0.625657   
O359     O      0.328991850000     0.061117695000     0.882219800000    -0.094488   
O360     O      0.109919010000     0.087727480000     0.620500865000    -0.769636   
O361     O      0.094617040000     0.092320555000     0.582864315000    -0.459622   
O362     O      0.106856785000     0.277783200000     0.647476900000    -0.414639   
O363     O      0.091554805000     0.282376230000     0.609840340000    -2.31788    
O364     O      0.246307550000     0.381778800000     0.842817875000    -0.238367   
O365     O      0.417137535000     0.498794735000     0.860242750000    -0.213448   
O366     O      0.279858320000     0.352603080000     0.845184850000    -0.364101   
O367     O      0.383586750000     0.027970435000     0.857875750000    -0.886236   
O368     O      0.369337170000     0.052163975000     0.632003980000    -0.742161   
O369     O      0.326065800000     0.039888820000     0.631755160000    -0.488122   
O370     O      0.340685200000     0.070840865000     0.823566250000    -0.490367   
O371     O      0.354792150000     0.032682125000     0.824212150000    -0.336348   
O372     O      0.076528015000     0.311850370000     0.841305550000    -1.01596    
O373     O      0.356098600000     0.286713850000     0.832021300000     8.9842     
O374     O      0.079196340000     0.281934250000     0.814724700000    -1.01791    
O375     O      0.272638950000     0.320491550000     0.908628200000     0.444606   
O376     O      0.233213065000     0.332126750000     0.885687770000     0.531151   
O377     O      0.237459375000     0.288394550000     0.898233650000     0.325049   
O378     O      0.190210090000     0.248951800000     0.856824220000    -0.271031   
O379     O      0.163336665000     0.232978580000     0.823904485000    -0.28411    
O380     O      0.353430250000     0.316629975000     0.858602150000     6.11187    
O381     O      0.207401365000     0.254664650000     0.814305780000    -0.348271   
O382     O      0.328671750000     0.261755600000     0.800837150000    -1.7515     
O383     O      0.295927850000     0.279823720000     0.774850450000    -0.907192   
O384     O      0.337627770000     0.304298000000     0.786683150000    -1.37127    
O385     O      0.095187985000     0.349401830000     0.810200350000    -0.228482   
O386     O      0.100697480000     0.352910900000     0.853081525000    -0.174521   
O387     O      0.134919940000     0.373542665000     0.826891100000    -0.271901   
O388     O      0.256199775000     0.295197250000     0.799558600000    -2.65893    
O389     O      0.175020920000     0.344276550000     0.832570730000    -0.027573   
O390     O      0.100780620000     0.050313115000     0.663326160000    -0.250966   
O391     O      0.102002280000     0.014994460000     0.646345185000    -0.350464   
O392     O      0.341133800000     0.046332975000     0.543052585000    -0.986085   
O393     O      0.349399475000     0.079874755000     0.562086215000    -0.328245   
O394     O      0.313637970000     0.116936600000     0.594221940000    -0.271959   
O395     O      0.314049570000     0.118061900000     0.554132660000    -0.299479   
O396     O      0.239614380000     0.013115595000     0.549692810000    -0.222627   
O397     O      0.248944075000     0.004366815000     0.588009695000    -0.326699   
O398     O      0.295111715000     0.007793035000     0.539446655000    -0.241284   
O399     O      0.296672165000     0.037816020000     0.513418150000    -0.276631   
O400     O      0.185953320000     0.485627200000     0.606107850000    -0.204405   
O401     O      0.189289720000     0.015082690000     0.579583885000    -0.29276    
O402     O      0.311992675000     0.259394230000     0.849501200000    -2.79777    
O403     O      0.352360950000     0.059393940000     0.853435500000    -0.310503   
O404     O      0.356771050000     0.257810550000     0.840936900000    -2.48212    
O405     O      0.307582600000     0.060977595000     0.861999800000    -0.404456   
O406     O      0.030876695000     0.009103730000     0.603534650000    -0.189027   
O407     O      0.410926970000     0.071726390000     0.625645370000    -0.324534   
O408     O      0.407190600000     0.070012710000     0.585736140000    -0.278266   
O409     O      0.047847750000     0.045678285000     0.600693055000    -0.327592   
Zn0      Zn     0.354781150000     0.797413020000     0.353741550000     11.6221    
Zn1      Zn     0.301684080000     0.802036435000     0.340145550000    -39.5627    
Zn2      Zn     0.320769280000     0.563419870000     0.341974050000     1.43201    
Zn3      Zn     0.363131950000     0.533491885000     0.363337650000     1.47173    
Zn4      Zn     0.322756170000     0.542749785000     0.093939965000     1.26074    
Zn5      Zn     0.377343415000     0.555933170000     0.109538385000     1.26107    
Zn6      Zn     0.114946360000     0.807540050000     0.147817350000     1.0354     
Zn7      Zn     0.093337015000     0.791723000000     0.099918740000     2.12308    
Zn8      Zn     0.092782675000     0.796690850000     0.329890300000    -0.940459   
Zn9      Zn     0.152107820000     0.798732150000     0.330501615000     1.44961    
Zn10     Zn     0.100891015000     0.575228385000     0.105282975000     1.28979    
Zn11     Zn     0.096796765000     0.523481950000     0.112348660000     1.29637    
H12      H      0.030766065000     0.860645385000     0.145051050000    -0.479552   
H13      H      0.079845735000     0.863411875000     0.140186520000     1.36086    
H14      H      0.110241265000     0.841763375000     0.166874035000    -0.301682   
H15      H      0.042412255000     0.815438200000     0.204279050000     0.055738   
H16      H      0.012204185000     0.836651750000     0.177154975000     0.247367   
H17      H      0.130654735000     0.760675580000     0.207407190000     0.063838   
H18      H      0.204077765000     0.749085650000     0.266602785000     0.031226   
H19      H      0.176751690000     0.728049770000     0.295070200000     0.03739    
H20      H      0.127934590000     0.733937050000     0.295878000000     0.002275   
H21      H      0.106220970000     0.762129550000     0.269134650000     0.073182   
H22      H      0.132003160000     0.861580350000     0.217879890000     0.065881   
H23      H      0.118834125000     0.903040400000     0.225383565000     0.008603   
H24      H      0.074705355000     0.912388200000     0.242623880000     0.056025   
H25      H      0.043569790000     0.880156070000     0.252405700000     0.02844    
H26      H      0.056335670000     0.838597800000     0.244776370000     0.073104   
H27      H      0.173765940000     0.814860550000     0.238332735000     0.064546   
H28      H      0.205966650000     0.833046850000     0.212239920000     0.008147   
H29      H      0.239927860000     0.808724050000     0.191912875000     0.034454   
H30      H      0.240786450000     0.765317000000     0.197278530000     0.025049   
H31      H      0.208416350000     0.746655465000     0.223179550000     0.053397   
H32      H      0.123077900000     0.825490830000     0.018889845000     0.038505   
H33      H      0.175005480000     0.741894600000     0.481697150000     0.043094   
H34      H      0.159181790000     0.812956900000     0.002776565000     0.034742   
H35      H      0.093534200000     0.762379550000     0.441473650000     0.062778   
H36      H      0.064414025000     0.887874930000     0.494924350000     0.088457   
H37      H      0.018067040000     0.883706870000     0.002160370000     0.016163   
H38      H      0.035452675000     0.863940650000     0.021754980000     0.037114   
H39      H      0.020091520000     0.852783550000     0.494614200000    -0.00296    
H40      H      0.072481095000     0.805563700000     0.405665400000     0.069125   
H41      H      0.068293385000     0.774144175000     0.407929630000     0.053771   
H42      H      0.039662395000     0.792669700000     0.402981550000     0.027201   
H43      H      0.044782480000     0.778335050000     0.445196550000     0.020575   
H44      H      0.040605345000     0.808412350000     0.442832770000     0.01469    
H45      H      0.073002875000     0.886365100000     0.451469630000     0.061056   
H46      H      0.099323150000     0.868104250000     0.439359650000     0.069032   
H47      H      0.071535855000     0.877176000000     0.421118000000     0.055772   
H48      H      0.064915895000     0.837409230000     0.429946780000     0.033447   
H49      H      0.040492705000     0.853217065000     0.446969775000     0.014218   
H50      H      0.201986500000     0.796474280000     0.007805290000     0.067956   
H51      H      0.220393985000     0.766379050000     0.031073330000     0.029009   
H52      H      0.197681800000     0.745242315000     0.018172860000     0.045535   
H53      H      0.185316580000     0.768146150000     0.038007320000     0.040736   
H54      H      0.124665565000     0.816004400000     0.265544175000     0.103052   
H55      H      0.103394200000     0.777295470000     0.242747275000     0.02719    
H56      H      0.149512960000     0.830232350000     0.249436450000     0.08642    
H57      H      0.122699125000     0.761434250000     0.221528650000     0.069418   
H58      H      0.148867475000     0.836202300000     0.200089050000     0.146345   
H59      H      0.143071620000     0.812349950000     0.179717570000     0.161114   
H60      H      0.176889880000     0.810012300000     0.219108865000     0.078479   
H61      H      0.163044470000     0.785246250000     0.203051520000     0.014264   
H62      H      0.076122195000     0.859215615000     0.210718825000     0.643648   
H63      H      0.108390780000     0.816810280000     0.154664010000     1.37845    
H64      H      0.139738140000     0.789999125000     0.286704800000     0.013532   
H65      H      0.173692800000     0.752853600000     0.227098250000     0.012253   
H66      H      0.115702680000     0.848257480000     0.230408265000     0.156841   
H67      H      0.109828400000     0.782575430000     0.190248115000    -0.215168   
H68      H      0.096353330000     0.847473100000     0.277184550000     0.159498   
H69      H      0.080631795000     0.865629200000     0.255013585000     0.123979   
H70      H      0.060650970000     0.846627175000     0.272825900000     0.072458   
H71      H      0.065529540000     0.829546125000     0.233272525000     0.031518   
H72      H      0.080680445000     0.811337235000     0.254614470000     0.016631   
H73      H      0.049437750000     0.806175200000     0.182662450000     0.116327   
H74      H      0.068647705000     0.782568930000     0.168753965000     0.163865   
H75      H      0.038219540000     0.776482850000     0.184020015000     0.068741   
H76      H      0.070797035000     0.765061320000     0.210923925000     0.024335   
H77      H      0.060966175000     0.792862030000     0.221943170000     0.036608   
H78      H      0.308831650000     0.807822850000     0.379715530000     6.56903    
H79      H      0.221154215000     0.787343530000     0.388205050000    -0.04149    
H80      H      0.200207550000     0.760041835000     0.298928915000     0.186623   
H81      H      0.327410450000     0.816047520000     0.277490080000     0.318455   
H82      H      0.122514050000     0.887109750000     0.325734300000     0.153658   
H83      H      0.273905750000     0.824092865000     0.283655550000    -0.193835   
H84      H      0.244284810000     0.830594120000     0.300649525000    -0.263986   
H85      H      0.216818290000     0.807829100000     0.270920250000     0.182652   
H86      H      0.125186160000     0.762985615000     0.327729150000    -0.019126   
H87      H      0.234279635000     0.832274885000     0.258108400000     0.11173    
H88      H      0.246542975000     0.802547500000     0.253710715000     0.205464   
H89      H      0.167195710000     0.852428975000     0.297334880000     0.053121   
H90      H      0.196118160000     0.834025550000     0.302184435000     0.044859   
H91      H      0.219487500000     0.867394650000     0.322519750000     0.090444   
H92      H      0.209578560000     0.874337100000     0.292618700000     0.059565   
H93      H      0.190733835000     0.886078120000     0.317233150000     0.085566   
H94      H      0.193842815000     0.576186400000     0.147065520000     0.056703   
H95      H      0.143544180000     0.502842850000     0.129638075000     0.112876   
H96      H      0.323372300000     0.633718850000     0.056727575000     0.153055   
H97      H      0.262349650000     0.638665185000     0.133964200000     0.061868   
H98      H      0.232461035000     0.622200260000     0.140621400000     0.058093   
H99      H      0.261002450000     0.621437275000     0.160345950000     0.058169   
H100     H      0.258024350000     0.584480040000     0.136267425000     0.02815    
H101     H      0.287837180000     0.600680100000     0.129931950000     0.034582   
H102     H      0.262753070000     0.618669500000     0.094387480000     0.062963   
H103     H      0.235345170000     0.600600700000     0.100390710000     0.055237   
H104     H      0.153595075000     0.598389475000     0.216513770000     0.06204    
H105     H      0.118980875000     0.590733590000     0.210780800000     0.073994   
H106     H      0.137721570000     0.575780010000     0.233456390000     0.064611   
H107     H      0.133514315000     0.550064260000     0.198213560000     0.049579   
H108     H      0.167750600000     0.558150365000     0.203007670000     0.030396   
H109     H      0.163515200000     0.590089845000     0.173509225000     0.057959   
H110     H      0.129812200000     0.583066755000     0.167427900000     0.089136   
H111     H      0.239190750000     0.989087550000     0.084349030000     0.171379   
H112     H      0.300635665000     0.524970335000     0.001289825000     0.164678   
H113     H      0.192150235000     0.501836435000     0.067638790000     0.167077   
H114     H      0.434032470000     0.958237470000     0.052340845000     0.048599   
H115     H      0.405567600000     0.944532275000     0.065464890000     0.039401   
H116     H      0.403206700000     0.973994750000     0.054209610000     0.048918   
H117     H      0.433428850000     0.956555130000     0.098503485000     0.031778   
H118     H      0.405882250000     0.975432100000     0.098160965000     0.027819   
H119     H      0.450427000000     0.615160400000     0.184845640000     0.066476   
H120     H      0.475372050000     0.620554870000     0.162886725000     0.06029    
H121     H      0.443012500000     0.634748920000     0.161667230000     0.051325   
H122     H      0.436266720000     0.605630830000     0.133330315000     0.054736   
H123     H      0.424206600000     0.591599210000     0.159844680000     0.067509   
H124     H      0.028311430000     0.584477580000     0.090226895000     0.081588   
H125     H      0.018060565000     0.610546700000     0.105680405000     0.072682   
H126     H      0.052786825000     0.605978110000     0.099757535000     0.065684   
H127     H      0.040503445000     0.599483215000     0.141388850000     0.045672   
H128     H      0.056097985000     0.574576260000     0.128860175000     0.001847   
H129     H      0.008293510000     0.967182070000     0.113068335000     0.111766   
H130     H      0.475236700000     0.955962720000     0.118612800000     0.073953   
H131     H      0.000079630000     0.937292300000     0.104935965000     0.087395   
H132     H      0.469905250000     0.950114700000     0.073642240000     0.023623   
H133     H      0.001238585000     0.963904150000     0.070271985000     0.050667   
H134     H      0.422397900000     0.544800930000     0.052114215000     0.08311    
H135     H      0.414619775000     0.515808400000     0.040885295000     0.060751   
H136     H      0.387950350000     0.536250295000     0.047444515000     0.046945   
H137     H      0.393297585000     0.505029930000     0.077343880000     0.007754   
H138     H      0.395910050000     0.531818555000     0.090425515000    -0.092089   
C139     C      0.122800575000     0.818549600000     0.265320865000     0.061482   
C140     C      0.102142630000     0.779804080000     0.173161950000     0.664252   
C141     C      0.071722335000     0.852690300000     0.154001475000    -4.94829    
C142     C      0.088903740000     0.840376200000     0.169074120000     7.6295     
C143     C      0.078500800000     0.826098380000     0.186752230000     1.12387    
C144     C      0.050747895000     0.825405550000     0.189987465000    -0.005355   
C145     C      0.033596125000     0.837623350000     0.174828425000    -0.858299   
C146     C      0.044065420000     0.851167320000     0.156760035000     2.08455    
C147     C      0.102664090000     0.822452875000     0.225308535000    -0.100093   
C148     C      0.117718525000     0.809115915000     0.241564550000     0.139478   
C149     C      0.128214050000     0.786922600000     0.234871565000    -0.015962   
C150     C      0.122735225000     0.777831500000     0.212412760000    -0.205585   
C151     C      0.106895590000     0.790363430000     0.196496600000     0.100074   
C152     C      0.096614735000     0.812869800000     0.202821640000    -1.35186    
C153     C      0.170815470000     0.767802120000     0.250562900000    -0.045154   
C154     C      0.182714880000     0.752158200000     0.266683050000     0.056739   
C155     C      0.167336750000     0.740212915000     0.283000800000     0.087119   
C156     C      0.139841080000     0.743714080000     0.283623370000     0.1884     
C157     C      0.127663950000     0.759637175000     0.268368550000    -0.131448   
C158     C      0.142809375000     0.771791900000     0.251758365000     0.112241   
C159     C      0.095124470000     0.847194820000     0.230915130000     0.206983   
C160     C      0.112711170000     0.865497700000     0.225511180000    -0.287013   
C161     C      0.105284730000     0.888949335000     0.229658290000     0.06934    
C162     C      0.080373445000     0.894218830000     0.239333720000    -0.105972   
C163     C      0.062841520000     0.876041800000     0.244882775000    -0.023451   
C164     C      0.070128785000     0.852562550000     0.240630050000    -0.214742   
C165     C      0.188310265000     0.779152250000     0.232914400000     0.08129    
C166     C      0.187828450000     0.803635050000     0.229380665000    -0.182201   
C167     C      0.206347765000     0.814162150000     0.214614450000     0.013855   
C168     C      0.225443465000     0.800415900000     0.203055815000    -0.070205   
C169     C      0.225900575000     0.776057720000     0.206059010000     0.006161   
C170     C      0.207449690000     0.765491300000     0.220830000000    -0.084661   
C171     C      0.127386125000     0.733008070000     0.462006500000     0.262834   
C172     C      0.102118215000     0.866450050000     0.022384105000     0.261028   
C173     C      0.072631405000     0.838153350000     0.468100200000    -0.025934   
C174     C      0.092079110000     0.847773820000     0.006789385000    -0.070785   
C175     C      0.162087620000     0.757229030000     0.481319750000    -0.019039   
C176     C      0.170130640000     0.777918100000     0.492960065000     0.016776   
C177     C      0.152533860000     0.797048570000     0.493732630000    -0.030437   
C178     C      0.127219335000     0.795882015000     0.482341020000    -0.015643   
C179     C      0.120901385000     0.776260970000     0.468088565000     0.05504    
C180     C      0.108025535000     0.813824600000     0.484861670000    -0.007965   
C181     C      0.087088085000     0.816441650000     0.467950500000    -0.012724   
C182     C      0.081331350000     0.796960325000     0.452546800000     0.021838   
C183     C      0.098211975000     0.777130785000     0.453114250000    -0.075003   
C184     C      0.108834170000     0.828523130000     0.004702210000    -0.007753   
C185     C      0.072940200000     0.852322070000     0.488882600000     0.056184   
C186     C      0.137195810000     0.756033125000     0.469722100000    -0.078117   
C187     C      0.031038855000     0.867834420000     0.002928735000    -0.000223   
C188     C      0.055104455000     0.794177700000     0.438969670000    -0.061547   
C189     C      0.059248925000     0.791540830000     0.412292330000    -0.14325    
C190     C      0.062135270000     0.849190100000     0.445379150000    -0.036377   
C191     C      0.077465765000     0.871561380000     0.439134500000    -0.151271   
C192     C      0.199857190000     0.763964770000     0.023831725000    -0.087553   
C193     C      0.102602675000     0.997572150000     0.109329505000     0.022477   
C194     C      0.098884130000     0.827858030000     0.121252250000     0.139936   
C195     C      0.101992130000     0.971307350000     0.111156290000     0.044013   
C196     C      0.099430970000     0.854111600000     0.119399125000    -0.13254    
C197     C      0.101499280000     0.949454950000     0.112679885000     0.005711   
C198     C      0.099895290000     0.875973165000     0.117855745000    -0.109857   
C199     C      0.100926510000     0.923601150000     0.114496985000    -0.003155   
C200     C      0.100451320000     0.901821375000     0.116029220000     0.013683   
C201     C      0.354392300000     0.553975740000     0.062014995000     0.439961   
C202     C      0.340588630000     0.544047920000     0.393837480000     0.253511   
C203     C      0.352256120000     0.552439405000     0.035989345000     0.997419   
C204     C      0.342724770000     0.545584255000     0.419863135000    -0.082077   
C205     C      0.350477900000     0.551160465000     0.014324305000    -0.344142   
C206     C      0.344502950000     0.546863150000     0.441528170000     0.07162    
C207     C      0.348379550000     0.549651295000     0.488758775000     0.13896    
C208     C      0.346601365000     0.548372365000     0.467093700000    -0.096581   
C209     C      0.099788860000     0.742880670000     0.123337715000    -0.391988   
C210     C      0.100139850000     0.721252500000     0.120274170000     0.225659   
C211     C      0.100911565000     0.674305200000     0.113658940000     0.046493   
C212     C      0.101330645000     0.648839650000     0.110066475000    -0.015954   
C213     C      0.101681545000     0.627217200000     0.107003755000     0.009322   
C214     C      0.099382675000     0.768712650000     0.127029450000     1.16006    
C215     C      0.102091140000     0.601391145000     0.103311775000     0.075048   
C216     C      0.100555420000     0.695786790000     0.116682775000    -0.104372   
C217     C      0.156909170000     0.779589300000     0.251919650000    -0.102807   
C218     C      0.110211410000     0.829359175000     0.232229190000    -0.419538   
C219     C      0.102061840000     0.791044385000     0.206730815000     0.312738   
C220     C      0.132226810000     0.818014250000     0.247502820000    -0.117896   
C221     C      0.116849295000     0.779514370000     0.227417230000    -0.055574   
C222     C      0.140829450000     0.817971600000     0.198477490000    -0.582945   
C223     C      0.110875120000     0.817608980000     0.206588670000     1.6322     
C224     C      0.141592740000     0.794473320000     0.235567285000    -0.019972   
C225     C      0.157885610000     0.801234500000     0.213699200000     0.062113   
C226     C      0.077639500000     0.848811850000     0.194674800000    -1.98415    
C227     C      0.094829670000     0.827452850000     0.165032650000    -7.41071    
C228     C      0.094991855000     0.830853750000     0.189360185000    -0.484325   
C229     C      0.149242775000     0.777392400000     0.275209575000     0.094212   
C230     C      0.167387575000     0.757885450000     0.244655950000     0.058231   
C231     C      0.082888250000     0.828320475000     0.245385915000     0.118772   
C232     C      0.080086180000     0.848254900000     0.263730250000    -0.185161   
C233     C      0.071843850000     0.784258050000     0.207339690000     0.006247   
C234     C      0.056356960000     0.787714150000     0.184200125000    -0.166478   
C235     C      0.339040700000     0.948956650000     0.352265600000    -0.065743   
C236     C      0.271823200000     0.875264750000     0.344829915000     0.188741   
C237     C      0.391628175000     0.505311015000     0.358052800000     0.407297   
C238     C      0.291666330000     0.894381585000     0.346942300000    -0.189132   
C239     C      0.371796280000     0.986179950000     0.355912180000    -0.184813   
C240     C      0.307031650000     0.911215950000     0.348645400000    -0.028799   
C241     C      0.356445520000     0.969334275000     0.354220450000     0.061996   
C242     C      0.324447500000     0.931582900000     0.350614580000    -0.064445   
C243     C      0.347703750000     0.546370310000     0.143393400000     0.42414    
C244     C      0.347807525000     0.551437780000     0.312375785000     0.269035   
C245     C      0.347714350000     0.547149365000     0.169560225000    -0.139606   
C246     C      0.347770400000     0.550643020000     0.286208870000    -0.09249    
C247     C      0.347718600000     0.547799265000     0.191318800000     0.072196   
C248     C      0.347745300000     0.549987180000     0.264450200000     0.038512   
C249     C      0.347720750000     0.548561535000     0.217002660000    -0.030504   
C250     C      0.347729115000     0.549212780000     0.238766385000    -0.011629   
C251     C      0.090528800000     0.798186750000     0.327853700000     3.44529    
C252     C      0.133203685000     0.822730300000     0.330198375000     0.233991   
C253     C      0.270463200000     0.798109830000     0.320473650000     10.6292    
C254     C      0.161373975000     0.823115765000     0.331860425000    -0.526545   
C255     C      0.256546550000     0.802935000000     0.341413750000    -7.60748    
C256     C      0.175762450000     0.801912950000     0.333866565000     0.307517   
C257     C      0.227919750000     0.803182100000     0.340218125000     2.60744    
C258     C      0.204103485000     0.802789050000     0.337825000000    -1.43669    
C259     C      0.342058035000     0.801489385000     0.344209250000    -47.5184    
C260     C      0.270345900000     0.806559600000     0.362869700000     14.3812    
C261     C      0.162752135000     0.780150200000     0.331469120000    -1.0356     
C262     C      0.298180520000     0.805344880000     0.363128065000    -29.3402    
C263     C      0.135086950000     0.779730150000     0.328753550000     0.261274   
C264     C      0.253916620000     0.817378135000     0.288712800000     0.886539   
C265     C      0.236800775000     0.814830850000     0.266458275000    -0.442833   
C266     C      0.184266750000     0.848957420000     0.309580800000     0.031331   
C267     C      0.202133090000     0.870572950000     0.310576500000    -0.176367   
C268     C      0.312565250000     0.800513030000     0.342454525000     91.5434    
C269     C      0.119959080000     0.800505200000     0.328605500000    -1.32521    
C270     C      0.298455900000     0.795321050000     0.320999025000    -15.5152    
C271     C      0.265059770000     0.541585880000     0.070403950000    -0.081917   
C272     C      0.257012100000     0.559034370000     0.086802380000    -0.023539   
C273     C      0.234102710000     0.554605190000     0.101309180000     0.013516   
C274     C      0.114002215000     0.533273700000     0.154285460000     0.239117   
C275     C      0.142798050000     0.536149290000     0.148837210000    -0.139295   
C276     C      0.154149575000     0.519024035000     0.133730320000     0.01429    
C277     C      0.177480670000     0.523450530000     0.121434270000    -0.072107   
C278     C      0.191381365000     0.544534455000     0.125968550000     0.063988   
C279     C      0.182283600000     0.560391255000     0.143270910000    -0.112699   
C280     C      0.157973485000     0.556688505000     0.154828000000     0.093443   
C281     C      0.269932600000     0.581141480000     0.087866165000     0.030765   
C282     C      0.293766700000     0.584299440000     0.074911650000    -0.12176    
C283     C      0.287320800000     0.545562930000     0.056026705000    -0.055708   
C284     C      0.214818015000     0.550260960000     0.112886375000    -0.027066   
C285     C      0.303799450000     0.565548150000     0.060591620000    -0.033162   
C286     C      0.332717270000     0.564578665000     0.053903485000     0.341412   
C287     C      0.307610000000     0.607400825000     0.075400770000     0.301566   
C288     C      0.257469030000     0.601396865000     0.101953330000    -0.105221   
C289     C      0.265718150000     0.600762660000     0.128124350000    -0.02016    
C290     C      0.254642070000     0.622115440000     0.141542850000    -0.158037   
C291     C      0.149152665000     0.575151190000     0.172843290000    -0.129491   
C292     C      0.147776840000     0.564971930000     0.197758600000    -0.006324   
C293     C      0.138977335000     0.583701140000     0.215700200000    -0.164901   
C294     C      0.250237200000     0.519003620000     0.068436040000     0.299668   
C295     C      0.293098700000     0.528953325000     0.036068150000     0.329366   
C296     C      0.185022620000     0.506764400000     0.102316825000     0.242618   
C297     C      0.331939370000     0.648710850000     0.352141300000     0.065009   
C298     C      0.332414300000     0.670077310000     0.350795350000    -0.120545   
C299     C      0.334100485000     0.745941450000     0.346016600000     0.815276   
C300     C      0.330253200000     0.572846720000     0.356920100000    -0.694658   
C301     C      0.330867680000     0.600492885000     0.355178625000     0.207052   
C302     C      0.333486000000     0.718295290000     0.347758050000    -0.352723   
C303     C      0.331342430000     0.621853410000     0.353833100000    -0.125378   
C304     C      0.333011270000     0.696934775000     0.349103570000     0.144508   
C305     C      0.461138800000     0.577156470000     0.145698635000     0.005043   
C306     C      0.424141700000     0.970909450000     0.088184745000    -0.056463   
C307     C      0.416364300000     0.961430100000     0.063582350000    -0.140659   
C308     C      0.442131350000     0.597870080000     0.150413990000    -0.046804   
C309     C      0.453671700000     0.618146175000     0.165815000000    -0.145692   
C310     C      0.037419915000     0.584968240000     0.128214400000    -0.029141   
C311     C      0.033906280000     0.597082930000     0.104474485000    -0.172652   
C312     C      0.483301000000     0.963558735000     0.081643695000    -0.030873   
C313     C      0.492175815000     0.955561300000     0.106115525000    -0.210336   
C314     C      0.406482430000     0.520538450000     0.078299575000     0.020047   
C315     C      0.407996550000     0.530038080000     0.053210060000    -0.156304   
C316     C      0.420606750000     0.566585960000     0.105537660000     0.177575   
C317     C      0.027795135000     0.531792280000     0.102486500000     0.294649   
C318     C      0.478862750000     0.572311590000     0.164345600000     0.01466    
C319     C      0.005942345000     0.571575435000     0.159127680000     0.026561   
C320     C      0.013506355000     0.570221670000     0.135309680000     0.014407   
C321     C      0.494297830000     0.560588255000     0.118844360000    -0.018133   
C322     C      0.467041650000     0.566290945000     0.122716635000     0.022806   
C323     C      0.000697195000     0.541825970000     0.102778690000    -0.047367   
C324     C      0.480111865000     0.528450380000     0.091623760000     0.004107   
C325     C      0.453067000000     0.534237215000     0.094562895000     0.021631   
C326     C      0.447308125000     0.556324565000     0.106389480000    -0.057832   
C327     C      0.486104650000     0.507352770000     0.079447030000     0.021603   
C328     C      0.470380500000     0.987786350000     0.083071210000    -0.014416   
C329     C      0.443070150000     0.991790900000     0.087002820000     0.001687   
C330     C      0.433967000000     0.515729850000     0.088200090000    -0.032535   
S331     S      0.115166605000     0.849931120000     0.330125780000     0.288355   
S332     S      0.253318650000     0.812796475000     0.389513225000    -3.98048    
S333     S      0.180691570000     0.753192750000     0.331980600000     0.699134   
S334     S      0.314882050000     0.784554750000     0.295156950000     4.0499     
I335     I      0.464516670000     0.568937080000     0.199668140000    -0.114374   
I336     I      0.034735205000     0.574763245000     0.186670275000    -0.088263   
I337     I      0.000343560000     0.509724780000     0.044916140000    -0.092768   
N338     N      0.055486025000     0.872130900000     0.490391375000    -0.165156   
N339     N      0.195750370000     0.779484035000     0.004079700000    -0.133643   
N340     N      0.065199055000     0.854246600000     0.175001160000     0.049238   
N341     N      0.076390580000     0.841845570000     0.156194760000     1.13249    
N342     N      0.153308930000     0.755378400000     0.281173170000    -0.198384   
N343     N      0.164500460000     0.742977380000     0.262366800000    -0.145188   
O344     O      0.098295070000     0.757215100000     0.170949965000    -0.306822   
O345     O      0.147158500000     0.819491050000     0.273006900000    -0.222524   
O346     O      0.102840630000     0.825908300000     0.277804225000    -0.243307   
O347     O      0.102977165000     0.793401600000     0.155190020000    -0.572352   
O348     O      0.144441320000     0.717909550000     0.453463225000    -0.213662   
O349     O      0.102229415000     0.728087085000     0.465179850000    -0.222679   
O350     O      0.127719100000     0.870379150000     0.021338045000    -0.2111     
O351     O      0.085507200000     0.880556675000     0.033054650000    -0.210852   
O352     O      0.079981545000     0.509323775000     0.105871745000    -0.661061   
O353     O      0.125755220000     0.508813145000     0.111216850000    -0.433736   
O354     O      0.101118565000     0.814559600000     0.101864725000    -0.668017   
O355     O      0.096217590000     0.818156500000     0.142269685000     0.21547    
O356     O      0.375354825000     0.563948085000     0.071959615000    -0.364173   
O357     O      0.335306970000     0.545353545000     0.074941875000    -0.820744   
O358     O      0.350308200000     0.525628015000     0.382583750000    -0.625657   
O359     O      0.328991850000     0.561117695000     0.382219800000    -0.094488   
O360     O      0.109919010000     0.587727480000     0.120500865000    -0.769636   
O361     O      0.094617040000     0.592320555000     0.082864315000    -0.459622   
O362     O      0.106856785000     0.777783200000     0.147476900000    -0.414639   
O363     O      0.091554805000     0.782376230000     0.109840340000    -2.31788    
O364     O      0.246307550000     0.881778800000     0.342817875000    -0.238367   
O365     O      0.417137535000     0.998794735000     0.360242750000    -0.213448   
O366     O      0.279858320000     0.852603080000     0.345184850000    -0.364101   
O367     O      0.383586750000     0.527970435000     0.357875750000    -0.886236   
O368     O      0.369337170000     0.552163975000     0.132003980000    -0.742161   
O369     O      0.326065800000     0.539888820000     0.131755160000    -0.488122   
O370     O      0.340685200000     0.570840865000     0.323566250000    -0.490367   
O371     O      0.354792150000     0.532682125000     0.324212150000    -0.336348   
O372     O      0.076528015000     0.811850370000     0.341305550000    -1.01596    
O373     O      0.356098600000     0.786713850000     0.332021300000     8.9842     
O374     O      0.079196340000     0.781934250000     0.314724700000    -1.01791    
O375     O      0.272638950000     0.820491550000     0.408628200000     0.444606   
O376     O      0.233213065000     0.832126750000     0.385687770000     0.531151   
O377     O      0.237459375000     0.788394550000     0.398233650000     0.325049   
O378     O      0.190210090000     0.748951800000     0.356824220000    -0.271031   
O379     O      0.163336665000     0.732978580000     0.323904485000    -0.28411    
O380     O      0.353430250000     0.816629975000     0.358602150000     6.11187    
O381     O      0.207401365000     0.754664650000     0.314305780000    -0.348271   
O382     O      0.328671750000     0.761755600000     0.300837150000    -1.7515     
O383     O      0.295927850000     0.779823720000     0.274850450000    -0.907192   
O384     O      0.337627770000     0.804298000000     0.286683150000    -1.37127    
O385     O      0.095187985000     0.849401830000     0.310200350000    -0.228482   
O386     O      0.100697480000     0.852910900000     0.353081525000    -0.174521   
O387     O      0.134919940000     0.873542665000     0.326891100000    -0.271901   
O388     O      0.256199775000     0.795197250000     0.299558600000    -2.65893    
O389     O      0.175020920000     0.844276550000     0.332570730000    -0.027573   
O390     O      0.100780620000     0.550313115000     0.163326160000    -0.250966   
O391     O      0.102002280000     0.514994460000     0.146345185000    -0.350464   
O392     O      0.341133800000     0.546332975000     0.043052585000    -0.986085   
O393     O      0.349399475000     0.579874755000     0.062086215000    -0.328245   
O394     O      0.313637970000     0.616936600000     0.094221940000    -0.271959   
O395     O      0.314049570000     0.618061900000     0.054132660000    -0.299479   
O396     O      0.239614380000     0.513115595000     0.049692810000    -0.222627   
O397     O      0.248944075000     0.504366815000     0.088009695000    -0.326699   
O398     O      0.295111715000     0.507793035000     0.039446655000    -0.241284   
O399     O      0.296672165000     0.537816020000     0.013418150000    -0.276631   
O400     O      0.185953320000     0.985627200000     0.106107850000    -0.204405   
O401     O      0.189289720000     0.515082690000     0.079583885000    -0.29276    
O402     O      0.311992675000     0.759394230000     0.349501200000    -2.79777    
O403     O      0.352360950000     0.559393940000     0.353435500000    -0.310503   
O404     O      0.356771050000     0.757810550000     0.340936900000    -2.48212    
O405     O      0.307582600000     0.560977595000     0.361999800000    -0.404456   
O406     O      0.030876695000     0.509103730000     0.103534650000    -0.189027   
O407     O      0.410926970000     0.571726390000     0.125645370000    -0.324534   
O408     O      0.407190600000     0.570012710000     0.085736140000    -0.278266   
O409     O      0.047847750000     0.545678285000     0.100693055000    -0.327592   
Zn0      Zn     0.354781150000     0.797413020000     0.853741550000     11.6221    
Zn1      Zn     0.301684080000     0.802036435000     0.840145550000    -39.5627    
Zn2      Zn     0.320769280000     0.563419870000     0.841974050000     1.43201    
Zn3      Zn     0.363131950000     0.533491885000     0.863337650000     1.47173    
Zn4      Zn     0.322756170000     0.542749785000     0.593939965000     1.26074    
Zn5      Zn     0.377343415000     0.555933170000     0.609538385000     1.26107    
Zn6      Zn     0.114946360000     0.807540050000     0.647817350000     1.0354     
Zn7      Zn     0.093337015000     0.791723000000     0.599918740000     2.12308    
Zn8      Zn     0.092782675000     0.796690850000     0.829890300000    -0.940459   
Zn9      Zn     0.152107820000     0.798732150000     0.830501615000     1.44961    
Zn10     Zn     0.100891015000     0.575228385000     0.605282975000     1.28979    
Zn11     Zn     0.096796765000     0.523481950000     0.612348660000     1.29637    
H12      H      0.030766065000     0.860645385000     0.645051050000    -0.479552   
H13      H      0.079845735000     0.863411875000     0.640186520000     1.36086    
H14      H      0.110241265000     0.841763375000     0.666874035000    -0.301682   
H15      H      0.042412255000     0.815438200000     0.704279050000     0.055738   
H16      H      0.012204185000     0.836651750000     0.677154975000     0.247367   
H17      H      0.130654735000     0.760675580000     0.707407190000     0.063838   
H18      H      0.204077765000     0.749085650000     0.766602785000     0.031226   
H19      H      0.176751690000     0.728049770000     0.795070200000     0.03739    
H20      H      0.127934590000     0.733937050000     0.795878000000     0.002275   
H21      H      0.106220970000     0.762129550000     0.769134650000     0.073182   
H22      H      0.132003160000     0.861580350000     0.717879890000     0.065881   
H23      H      0.118834125000     0.903040400000     0.725383565000     0.008603   
H24      H      0.074705355000     0.912388200000     0.742623880000     0.056025   
H25      H      0.043569790000     0.880156070000     0.752405700000     0.02844    
H26      H      0.056335670000     0.838597800000     0.744776370000     0.073104   
H27      H      0.173765940000     0.814860550000     0.738332735000     0.064546   
H28      H      0.205966650000     0.833046850000     0.712239920000     0.008147   
H29      H      0.239927860000     0.808724050000     0.691912875000     0.034454   
H30      H      0.240786450000     0.765317000000     0.697278530000     0.025049   
H31      H      0.208416350000     0.746655465000     0.723179550000     0.053397   
H32      H      0.123077900000     0.825490830000     0.518889845000     0.038505   
H33      H      0.175005480000     0.741894600000     0.981697150000     0.043094   
H34      H      0.159181790000     0.812956900000     0.502776565000     0.034742   
H35      H      0.093534200000     0.762379550000     0.941473650000     0.062778   
H36      H      0.064414025000     0.887874930000     0.994924350000     0.088457   
H37      H      0.018067040000     0.883706870000     0.502160370000     0.016163   
H38      H      0.035452675000     0.863940650000     0.521754980000     0.037114   
H39      H      0.020091520000     0.852783550000     0.994614200000    -0.00296    
H40      H      0.072481095000     0.805563700000     0.905665400000     0.069125   
H41      H      0.068293385000     0.774144175000     0.907929630000     0.053771   
H42      H      0.039662395000     0.792669700000     0.902981550000     0.027201   
H43      H      0.044782480000     0.778335050000     0.945196550000     0.020575   
H44      H      0.040605345000     0.808412350000     0.942832770000     0.01469    
H45      H      0.073002875000     0.886365100000     0.951469630000     0.061056   
H46      H      0.099323150000     0.868104250000     0.939359650000     0.069032   
H47      H      0.071535855000     0.877176000000     0.921118000000     0.055772   
H48      H      0.064915895000     0.837409230000     0.929946780000     0.033447   
H49      H      0.040492705000     0.853217065000     0.946969775000     0.014218   
H50      H      0.201986500000     0.796474280000     0.507805290000     0.067956   
H51      H      0.220393985000     0.766379050000     0.531073330000     0.029009   
H52      H      0.197681800000     0.745242315000     0.518172860000     0.045535   
H53      H      0.185316580000     0.768146150000     0.538007320000     0.040736   
H54      H      0.124665565000     0.816004400000     0.765544175000     0.103052   
H55      H      0.103394200000     0.777295470000     0.742747275000     0.02719    
H56      H      0.149512960000     0.830232350000     0.749436450000     0.08642    
H57      H      0.122699125000     0.761434250000     0.721528650000     0.069418   
H58      H      0.148867475000     0.836202300000     0.700089050000     0.146345   
H59      H      0.143071620000     0.812349950000     0.679717570000     0.161114   
H60      H      0.176889880000     0.810012300000     0.719108865000     0.078479   
H61      H      0.163044470000     0.785246250000     0.703051520000     0.014264   
H62      H      0.076122195000     0.859215615000     0.710718825000     0.643648   
H63      H      0.108390780000     0.816810280000     0.654664010000     1.37845    
H64      H      0.139738140000     0.789999125000     0.786704800000     0.013532   
H65      H      0.173692800000     0.752853600000     0.727098250000     0.012253   
H66      H      0.115702680000     0.848257480000     0.730408265000     0.156841   
H67      H      0.109828400000     0.782575430000     0.690248115000    -0.215168   
H68      H      0.096353330000     0.847473100000     0.777184550000     0.159498   
H69      H      0.080631795000     0.865629200000     0.755013585000     0.123979   
H70      H      0.060650970000     0.846627175000     0.772825900000     0.072458   
H71      H      0.065529540000     0.829546125000     0.733272525000     0.031518   
H72      H      0.080680445000     0.811337235000     0.754614470000     0.016631   
H73      H      0.049437750000     0.806175200000     0.682662450000     0.116327   
H74      H      0.068647705000     0.782568930000     0.668753965000     0.163865   
H75      H      0.038219540000     0.776482850000     0.684020015000     0.068741   
H76      H      0.070797035000     0.765061320000     0.710923925000     0.024335   
H77      H      0.060966175000     0.792862030000     0.721943170000     0.036608   
H78      H      0.308831650000     0.807822850000     0.879715530000     6.56903    
H79      H      0.221154215000     0.787343530000     0.888205050000    -0.04149    
H80      H      0.200207550000     0.760041835000     0.798928915000     0.186623   
H81      H      0.327410450000     0.816047520000     0.777490080000     0.318455   
H82      H      0.122514050000     0.887109750000     0.825734300000     0.153658   
H83      H      0.273905750000     0.824092865000     0.783655550000    -0.193835   
H84      H      0.244284810000     0.830594120000     0.800649525000    -0.263986   
H85      H      0.216818290000     0.807829100000     0.770920250000     0.182652   
H86      H      0.125186160000     0.762985615000     0.827729150000    -0.019126   
H87      H      0.234279635000     0.832274885000     0.758108400000     0.11173    
H88      H      0.246542975000     0.802547500000     0.753710715000     0.205464   
H89      H      0.167195710000     0.852428975000     0.797334880000     0.053121   
H90      H      0.196118160000     0.834025550000     0.802184435000     0.044859   
H91      H      0.219487500000     0.867394650000     0.822519750000     0.090444   
H92      H      0.209578560000     0.874337100000     0.792618700000     0.059565   
H93      H      0.190733835000     0.886078120000     0.817233150000     0.085566   
H94      H      0.193842815000     0.576186400000     0.647065520000     0.056703   
H95      H      0.143544180000     0.502842850000     0.629638075000     0.112876   
H96      H      0.323372300000     0.633718850000     0.556727575000     0.153055   
H97      H      0.262349650000     0.638665185000     0.633964200000     0.061868   
H98      H      0.232461035000     0.622200260000     0.640621400000     0.058093   
H99      H      0.261002450000     0.621437275000     0.660345950000     0.058169   
H100     H      0.258024350000     0.584480040000     0.636267425000     0.02815    
H101     H      0.287837180000     0.600680100000     0.629931950000     0.034582   
H102     H      0.262753070000     0.618669500000     0.594387480000     0.062963   
H103     H      0.235345170000     0.600600700000     0.600390710000     0.055237   
H104     H      0.153595075000     0.598389475000     0.716513770000     0.06204    
H105     H      0.118980875000     0.590733590000     0.710780800000     0.073994   
H106     H      0.137721570000     0.575780010000     0.733456390000     0.064611   
H107     H      0.133514315000     0.550064260000     0.698213560000     0.049579   
H108     H      0.167750600000     0.558150365000     0.703007670000     0.030396   
H109     H      0.163515200000     0.590089845000     0.673509225000     0.057959   
H110     H      0.129812200000     0.583066755000     0.667427900000     0.089136   
H111     H      0.239190750000     0.989087550000     0.584349030000     0.171379   
H112     H      0.300635665000     0.524970335000     0.501289825000     0.164678   
H113     H      0.192150235000     0.501836435000     0.567638790000     0.167077   
H114     H      0.434032470000     0.958237470000     0.552340845000     0.048599   
H115     H      0.405567600000     0.944532275000     0.565464890000     0.039401   
H116     H      0.403206700000     0.973994750000     0.554209610000     0.048918   
H117     H      0.433428850000     0.956555130000     0.598503485000     0.031778   
H118     H      0.405882250000     0.975432100000     0.598160965000     0.027819   
H119     H      0.450427000000     0.615160400000     0.684845640000     0.066476   
H120     H      0.475372050000     0.620554870000     0.662886725000     0.06029    
H121     H      0.443012500000     0.634748920000     0.661667230000     0.051325   
H122     H      0.436266720000     0.605630830000     0.633330315000     0.054736   
H123     H      0.424206600000     0.591599210000     0.659844680000     0.067509   
H124     H      0.028311430000     0.584477580000     0.590226895000     0.081588   
H125     H      0.018060565000     0.610546700000     0.605680405000     0.072682   
H126     H      0.052786825000     0.605978110000     0.599757535000     0.065684   
H127     H      0.040503445000     0.599483215000     0.641388850000     0.045672   
H128     H      0.056097985000     0.574576260000     0.628860175000     0.001847   
H129     H      0.008293510000     0.967182070000     0.613068335000     0.111766   
H130     H      0.475236700000     0.955962720000     0.618612800000     0.073953   
H131     H      0.000079630000     0.937292300000     0.604935965000     0.087395   
H132     H      0.469905250000     0.950114700000     0.573642240000     0.023623   
H133     H      0.001238585000     0.963904150000     0.570271985000     0.050667   
H134     H      0.422397900000     0.544800930000     0.552114215000     0.08311    
H135     H      0.414619775000     0.515808400000     0.540885295000     0.060751   
H136     H      0.387950350000     0.536250295000     0.547444515000     0.046945   
H137     H      0.393297585000     0.505029930000     0.577343880000     0.007754   
H138     H      0.395910050000     0.531818555000     0.590425515000    -0.092089   
C139     C      0.122800575000     0.818549600000     0.765320865000     0.061482   
C140     C      0.102142630000     0.779804080000     0.673161950000     0.664252   
C141     C      0.071722335000     0.852690300000     0.654001475000    -4.94829    
C142     C      0.088903740000     0.840376200000     0.669074120000     7.6295     
C143     C      0.078500800000     0.826098380000     0.686752230000     1.12387    
C144     C      0.050747895000     0.825405550000     0.689987465000    -0.005355   
C145     C      0.033596125000     0.837623350000     0.674828425000    -0.858299   
C146     C      0.044065420000     0.851167320000     0.656760035000     2.08455    
C147     C      0.102664090000     0.822452875000     0.725308535000    -0.100093   
C148     C      0.117718525000     0.809115915000     0.741564550000     0.139478   
C149     C      0.128214050000     0.786922600000     0.734871565000    -0.015962   
C150     C      0.122735225000     0.777831500000     0.712412760000    -0.205585   
C151     C      0.106895590000     0.790363430000     0.696496600000     0.100074   
C152     C      0.096614735000     0.812869800000     0.702821640000    -1.35186    
C153     C      0.170815470000     0.767802120000     0.750562900000    -0.045154   
C154     C      0.182714880000     0.752158200000     0.766683050000     0.056739   
C155     C      0.167336750000     0.740212915000     0.783000800000     0.087119   
C156     C      0.139841080000     0.743714080000     0.783623370000     0.1884     
C157     C      0.127663950000     0.759637175000     0.768368550000    -0.131448   
C158     C      0.142809375000     0.771791900000     0.751758365000     0.112241   
C159     C      0.095124470000     0.847194820000     0.730915130000     0.206983   
C160     C      0.112711170000     0.865497700000     0.725511180000    -0.287013   
C161     C      0.105284730000     0.888949335000     0.729658290000     0.06934    
C162     C      0.080373445000     0.894218830000     0.739333720000    -0.105972   
C163     C      0.062841520000     0.876041800000     0.744882775000    -0.023451   
C164     C      0.070128785000     0.852562550000     0.740630050000    -0.214742   
C165     C      0.188310265000     0.779152250000     0.732914400000     0.08129    
C166     C      0.187828450000     0.803635050000     0.729380665000    -0.182201   
C167     C      0.206347765000     0.814162150000     0.714614450000     0.013855   
C168     C      0.225443465000     0.800415900000     0.703055815000    -0.070205   
C169     C      0.225900575000     0.776057720000     0.706059010000     0.006161   
C170     C      0.207449690000     0.765491300000     0.720830000000    -0.084661   
C171     C      0.127386125000     0.733008070000     0.962006500000     0.262834   
C172     C      0.102118215000     0.866450050000     0.522384105000     0.261028   
C173     C      0.072631405000     0.838153350000     0.968100200000    -0.025934   
C174     C      0.092079110000     0.847773820000     0.506789385000    -0.070785   
C175     C      0.162087620000     0.757229030000     0.981319750000    -0.019039   
C176     C      0.170130640000     0.777918100000     0.992960065000     0.016776   
C177     C      0.152533860000     0.797048570000     0.993732630000    -0.030437   
C178     C      0.127219335000     0.795882015000     0.982341020000    -0.015643   
C179     C      0.120901385000     0.776260970000     0.968088565000     0.05504    
C180     C      0.108025535000     0.813824600000     0.984861670000    -0.007965   
C181     C      0.087088085000     0.816441650000     0.967950500000    -0.012724   
C182     C      0.081331350000     0.796960325000     0.952546800000     0.021838   
C183     C      0.098211975000     0.777130785000     0.953114250000    -0.075003   
C184     C      0.108834170000     0.828523130000     0.504702210000    -0.007753   
C185     C      0.072940200000     0.852322070000     0.988882600000     0.056184   
C186     C      0.137195810000     0.756033125000     0.969722100000    -0.078117   
C187     C      0.031038855000     0.867834420000     0.502928735000    -0.000223   
C188     C      0.055104455000     0.794177700000     0.938969670000    -0.061547   
C189     C      0.059248925000     0.791540830000     0.912292330000    -0.14325    
C190     C      0.062135270000     0.849190100000     0.945379150000    -0.036377   
C191     C      0.077465765000     0.871561380000     0.939134500000    -0.151271   
C192     C      0.199857190000     0.763964770000     0.523831725000    -0.087553   
C193     C      0.102602675000     0.997572150000     0.609329505000     0.022477   
C194     C      0.098884130000     0.827858030000     0.621252250000     0.139936   
C195     C      0.101992130000     0.971307350000     0.611156290000     0.044013   
C196     C      0.099430970000     0.854111600000     0.619399125000    -0.13254    
C197     C      0.101499280000     0.949454950000     0.612679885000     0.005711   
C198     C      0.099895290000     0.875973165000     0.617855745000    -0.109857   
C199     C      0.100926510000     0.923601150000     0.614496985000    -0.003155   
C200     C      0.100451320000     0.901821375000     0.616029220000     0.013683   
C201     C      0.354392300000     0.553975740000     0.562014995000     0.439961   
C202     C      0.340588630000     0.544047920000     0.893837480000     0.253511   
C203     C      0.352256120000     0.552439405000     0.535989345000     0.997419   
C204     C      0.342724770000     0.545584255000     0.919863135000    -0.082077   
C205     C      0.350477900000     0.551160465000     0.514324305000    -0.344142   
C206     C      0.344502950000     0.546863150000     0.941528170000     0.07162    
C207     C      0.348379550000     0.549651295000     0.988758775000     0.13896    
C208     C      0.346601365000     0.548372365000     0.967093700000    -0.096581   
C209     C      0.099788860000     0.742880670000     0.623337715000    -0.391988   
C210     C      0.100139850000     0.721252500000     0.620274170000     0.225659   
C211     C      0.100911565000     0.674305200000     0.613658940000     0.046493   
C212     C      0.101330645000     0.648839650000     0.610066475000    -0.015954   
C213     C      0.101681545000     0.627217200000     0.607003755000     0.009322   
C214     C      0.099382675000     0.768712650000     0.627029450000     1.16006    
C215     C      0.102091140000     0.601391145000     0.603311775000     0.075048   
C216     C      0.100555420000     0.695786790000     0.616682775000    -0.104372   
C217     C      0.156909170000     0.779589300000     0.751919650000    -0.102807   
C218     C      0.110211410000     0.829359175000     0.732229190000    -0.419538   
C219     C      0.102061840000     0.791044385000     0.706730815000     0.312738   
C220     C      0.132226810000     0.818014250000     0.747502820000    -0.117896   
C221     C      0.116849295000     0.779514370000     0.727417230000    -0.055574   
C222     C      0.140829450000     0.817971600000     0.698477490000    -0.582945   
C223     C      0.110875120000     0.817608980000     0.706588670000     1.6322     
C224     C      0.141592740000     0.794473320000     0.735567285000    -0.019972   
C225     C      0.157885610000     0.801234500000     0.713699200000     0.062113   
C226     C      0.077639500000     0.848811850000     0.694674800000    -1.98415    
C227     C      0.094829670000     0.827452850000     0.665032650000    -7.41071    
C228     C      0.094991855000     0.830853750000     0.689360185000    -0.484325   
C229     C      0.149242775000     0.777392400000     0.775209575000     0.094212   
C230     C      0.167387575000     0.757885450000     0.744655950000     0.058231   
C231     C      0.082888250000     0.828320475000     0.745385915000     0.118772   
C232     C      0.080086180000     0.848254900000     0.763730250000    -0.185161   
C233     C      0.071843850000     0.784258050000     0.707339690000     0.006247   
C234     C      0.056356960000     0.787714150000     0.684200125000    -0.166478   
C235     C      0.339040700000     0.948956650000     0.852265600000    -0.065743   
C236     C      0.271823200000     0.875264750000     0.844829915000     0.188741   
C237     C      0.391628175000     0.505311015000     0.858052800000     0.407297   
C238     C      0.291666330000     0.894381585000     0.846942300000    -0.189132   
C239     C      0.371796280000     0.986179950000     0.855912180000    -0.184813   
C240     C      0.307031650000     0.911215950000     0.848645400000    -0.028799   
C241     C      0.356445520000     0.969334275000     0.854220450000     0.061996   
C242     C      0.324447500000     0.931582900000     0.850614580000    -0.064445   
C243     C      0.347703750000     0.546370310000     0.643393400000     0.42414    
C244     C      0.347807525000     0.551437780000     0.812375785000     0.269035   
C245     C      0.347714350000     0.547149365000     0.669560225000    -0.139606   
C246     C      0.347770400000     0.550643020000     0.786208870000    -0.09249    
C247     C      0.347718600000     0.547799265000     0.691318800000     0.072196   
C248     C      0.347745300000     0.549987180000     0.764450200000     0.038512   
C249     C      0.347720750000     0.548561535000     0.717002660000    -0.030504   
C250     C      0.347729115000     0.549212780000     0.738766385000    -0.011629   
C251     C      0.090528800000     0.798186750000     0.827853700000     3.44529    
C252     C      0.133203685000     0.822730300000     0.830198375000     0.233991   
C253     C      0.270463200000     0.798109830000     0.820473650000     10.6292    
C254     C      0.161373975000     0.823115765000     0.831860425000    -0.526545   
C255     C      0.256546550000     0.802935000000     0.841413750000    -7.60748    
C256     C      0.175762450000     0.801912950000     0.833866565000     0.307517   
C257     C      0.227919750000     0.803182100000     0.840218125000     2.60744    
C258     C      0.204103485000     0.802789050000     0.837825000000    -1.43669    
C259     C      0.342058035000     0.801489385000     0.844209250000    -47.5184    
C260     C      0.270345900000     0.806559600000     0.862869700000     14.3812    
C261     C      0.162752135000     0.780150200000     0.831469120000    -1.0356     
C262     C      0.298180520000     0.805344880000     0.863128065000    -29.3402    
C263     C      0.135086950000     0.779730150000     0.828753550000     0.261274   
C264     C      0.253916620000     0.817378135000     0.788712800000     0.886539   
C265     C      0.236800775000     0.814830850000     0.766458275000    -0.442833   
C266     C      0.184266750000     0.848957420000     0.809580800000     0.031331   
C267     C      0.202133090000     0.870572950000     0.810576500000    -0.176367   
C268     C      0.312565250000     0.800513030000     0.842454525000     91.5434    
C269     C      0.119959080000     0.800505200000     0.828605500000    -1.32521    
C270     C      0.298455900000     0.795321050000     0.820999025000    -15.5152    
C271     C      0.265059770000     0.541585880000     0.570403950000    -0.081917   
C272     C      0.257012100000     0.559034370000     0.586802380000    -0.023539   
C273     C      0.234102710000     0.554605190000     0.601309180000     0.013516   
C274     C      0.114002215000     0.533273700000     0.654285460000     0.239117   
C275     C      0.142798050000     0.536149290000     0.648837210000    -0.139295   
C276     C      0.154149575000     0.519024035000     0.633730320000     0.01429    
C277     C      0.177480670000     0.523450530000     0.621434270000    -0.072107   
C278     C      0.191381365000     0.544534455000     0.625968550000     0.063988   
C279     C      0.182283600000     0.560391255000     0.643270910000    -0.112699   
C280     C      0.157973485000     0.556688505000     0.654828000000     0.093443   
C281     C      0.269932600000     0.581141480000     0.587866165000     0.030765   
C282     C      0.293766700000     0.584299440000     0.574911650000    -0.12176    
C283     C      0.287320800000     0.545562930000     0.556026705000    -0.055708   
C284     C      0.214818015000     0.550260960000     0.612886375000    -0.027066   
C285     C      0.303799450000     0.565548150000     0.560591620000    -0.033162   
C286     C      0.332717270000     0.564578665000     0.553903485000     0.341412   
C287     C      0.307610000000     0.607400825000     0.575400770000     0.301566   
C288     C      0.257469030000     0.601396865000     0.601953330000    -0.105221   
C289     C      0.265718150000     0.600762660000     0.628124350000    -0.02016    
C290     C      0.254642070000     0.622115440000     0.641542850000    -0.158037   
C291     C      0.149152665000     0.575151190000     0.672843290000    -0.129491   
C292     C      0.147776840000     0.564971930000     0.697758600000    -0.006324   
C293     C      0.138977335000     0.583701140000     0.715700200000    -0.164901   
C294     C      0.250237200000     0.519003620000     0.568436040000     0.299668   
C295     C      0.293098700000     0.528953325000     0.536068150000     0.329366   
C296     C      0.185022620000     0.506764400000     0.602316825000     0.242618   
C297     C      0.331939370000     0.648710850000     0.852141300000     0.065009   
C298     C      0.332414300000     0.670077310000     0.850795350000    -0.120545   
C299     C      0.334100485000     0.745941450000     0.846016600000     0.815276   
C300     C      0.330253200000     0.572846720000     0.856920100000    -0.694658   
C301     C      0.330867680000     0.600492885000     0.855178625000     0.207052   
C302     C      0.333486000000     0.718295290000     0.847758050000    -0.352723   
C303     C      0.331342430000     0.621853410000     0.853833100000    -0.125378   
C304     C      0.333011270000     0.696934775000     0.849103570000     0.144508   
C305     C      0.461138800000     0.577156470000     0.645698635000     0.005043   
C306     C      0.424141700000     0.970909450000     0.588184745000    -0.056463   
C307     C      0.416364300000     0.961430100000     0.563582350000    -0.140659   
C308     C      0.442131350000     0.597870080000     0.650413990000    -0.046804   
C309     C      0.453671700000     0.618146175000     0.665815000000    -0.145692   
C310     C      0.037419915000     0.584968240000     0.628214400000    -0.029141   
C311     C      0.033906280000     0.597082930000     0.604474485000    -0.172652   
C312     C      0.483301000000     0.963558735000     0.581643695000    -0.030873   
C313     C      0.492175815000     0.955561300000     0.606115525000    -0.210336   
C314     C      0.406482430000     0.520538450000     0.578299575000     0.020047   
C315     C      0.407996550000     0.530038080000     0.553210060000    -0.156304   
C316     C      0.420606750000     0.566585960000     0.605537660000     0.177575   
C317     C      0.027795135000     0.531792280000     0.602486500000     0.294649   
C318     C      0.478862750000     0.572311590000     0.664345600000     0.01466    
C319     C      0.005942345000     0.571575435000     0.659127680000     0.026561   
C320     C      0.013506355000     0.570221670000     0.635309680000     0.014407   
C321     C      0.494297830000     0.560588255000     0.618844360000    -0.018133   
C322     C      0.467041650000     0.566290945000     0.622716635000     0.022806   
C323     C      0.000697195000     0.541825970000     0.602778690000    -0.047367   
C324     C      0.480111865000     0.528450380000     0.591623760000     0.004107   
C325     C      0.453067000000     0.534237215000     0.594562895000     0.021631   
C326     C      0.447308125000     0.556324565000     0.606389480000    -0.057832   
C327     C      0.486104650000     0.507352770000     0.579447030000     0.021603   
C328     C      0.470380500000     0.987786350000     0.583071210000    -0.014416   
C329     C      0.443070150000     0.991790900000     0.587002820000     0.001687   
C330     C      0.433967000000     0.515729850000     0.588200090000    -0.032535   
S331     S      0.115166605000     0.849931120000     0.830125780000     0.288355   
S332     S      0.253318650000     0.812796475000     0.889513225000    -3.98048    
S333     S      0.180691570000     0.753192750000     0.831980600000     0.699134   
S334     S      0.314882050000     0.784554750000     0.795156950000     4.0499     
I335     I      0.464516670000     0.568937080000     0.699668140000    -0.114374   
I336     I      0.034735205000     0.574763245000     0.686670275000    -0.088263   
I337     I      0.000343560000     0.509724780000     0.544916140000    -0.092768   
N338     N      0.055486025000     0.872130900000     0.990391375000    -0.165156   
N339     N      0.195750370000     0.779484035000     0.504079700000    -0.133643   
N340     N      0.065199055000     0.854246600000     0.675001160000     0.049238   
N341     N      0.076390580000     0.841845570000     0.656194760000     1.13249    
N342     N      0.153308930000     0.755378400000     0.781173170000    -0.198384   
N343     N      0.164500460000     0.742977380000     0.762366800000    -0.145188   
O344     O      0.098295070000     0.757215100000     0.670949965000    -0.306822   
O345     O      0.147158500000     0.819491050000     0.773006900000    -0.222524   
O346     O      0.102840630000     0.825908300000     0.777804225000    -0.243307   
O347     O      0.102977165000     0.793401600000     0.655190020000    -0.572352   
O348     O      0.144441320000     0.717909550000     0.953463225000    -0.213662   
O349     O      0.102229415000     0.728087085000     0.965179850000    -0.222679   
O350     O      0.127719100000     0.870379150000     0.521338045000    -0.2111     
O351     O      0.085507200000     0.880556675000     0.533054650000    -0.210852   
O352     O      0.079981545000     0.509323775000     0.605871745000    -0.661061   
O353     O      0.125755220000     0.508813145000     0.611216850000    -0.433736   
O354     O      0.101118565000     0.814559600000     0.601864725000    -0.668017   
O355     O      0.096217590000     0.818156500000     0.642269685000     0.21547    
O356     O      0.375354825000     0.563948085000     0.571959615000    -0.364173   
O357     O      0.335306970000     0.545353545000     0.574941875000    -0.820744   
O358     O      0.350308200000     0.525628015000     0.882583750000    -0.625657   
O359     O      0.328991850000     0.561117695000     0.882219800000    -0.094488   
O360     O      0.109919010000     0.587727480000     0.620500865000    -0.769636   
O361     O      0.094617040000     0.592320555000     0.582864315000    -0.459622   
O362     O      0.106856785000     0.777783200000     0.647476900000    -0.414639   
O363     O      0.091554805000     0.782376230000     0.609840340000    -2.31788    
O364     O      0.246307550000     0.881778800000     0.842817875000    -0.238367   
O365     O      0.417137535000     0.998794735000     0.860242750000    -0.213448   
O366     O      0.279858320000     0.852603080000     0.845184850000    -0.364101   
O367     O      0.383586750000     0.527970435000     0.857875750000    -0.886236   
O368     O      0.369337170000     0.552163975000     0.632003980000    -0.742161   
O369     O      0.326065800000     0.539888820000     0.631755160000    -0.488122   
O370     O      0.340685200000     0.570840865000     0.823566250000    -0.490367   
O371     O      0.354792150000     0.532682125000     0.824212150000    -0.336348   
O372     O      0.076528015000     0.811850370000     0.841305550000    -1.01596    
O373     O      0.356098600000     0.786713850000     0.832021300000     8.9842     
O374     O      0.079196340000     0.781934250000     0.814724700000    -1.01791    
O375     O      0.272638950000     0.820491550000     0.908628200000     0.444606   
O376     O      0.233213065000     0.832126750000     0.885687770000     0.531151   
O377     O      0.237459375000     0.788394550000     0.898233650000     0.325049   
O378     O      0.190210090000     0.748951800000     0.856824220000    -0.271031   
O379     O      0.163336665000     0.732978580000     0.823904485000    -0.28411    
O380     O      0.353430250000     0.816629975000     0.858602150000     6.11187    
O381     O      0.207401365000     0.754664650000     0.814305780000    -0.348271   
O382     O      0.328671750000     0.761755600000     0.800837150000    -1.7515     
O383     O      0.295927850000     0.779823720000     0.774850450000    -0.907192   
O384     O      0.337627770000     0.804298000000     0.786683150000    -1.37127    
O385     O      0.095187985000     0.849401830000     0.810200350000    -0.228482   
O386     O      0.100697480000     0.852910900000     0.853081525000    -0.174521   
O387     O      0.134919940000     0.873542665000     0.826891100000    -0.271901   
O388     O      0.256199775000     0.795197250000     0.799558600000    -2.65893    
O389     O      0.175020920000     0.844276550000     0.832570730000    -0.027573   
O390     O      0.100780620000     0.550313115000     0.663326160000    -0.250966   
O391     O      0.102002280000     0.514994460000     0.646345185000    -0.350464   
O392     O      0.341133800000     0.546332975000     0.543052585000    -0.986085   
O393     O      0.349399475000     0.579874755000     0.562086215000    -0.328245   
O394     O      0.313637970000     0.616936600000     0.594221940000    -0.271959   
O395     O      0.314049570000     0.618061900000     0.554132660000    -0.299479   
O396     O      0.239614380000     0.513115595000     0.549692810000    -0.222627   
O397     O      0.248944075000     0.504366815000     0.588009695000    -0.326699   
O398     O      0.295111715000     0.507793035000     0.539446655000    -0.241284   
O399     O      0.296672165000     0.537816020000     0.513418150000    -0.276631   
O400     O      0.185953320000     0.985627200000     0.606107850000    -0.204405   
O401     O      0.189289720000     0.515082690000     0.579583885000    -0.29276    
O402     O      0.311992675000     0.759394230000     0.849501200000    -2.79777    
O403     O      0.352360950000     0.559393940000     0.853435500000    -0.310503   
O404     O      0.356771050000     0.757810550000     0.840936900000    -2.48212    
O405     O      0.307582600000     0.560977595000     0.861999800000    -0.404456   
O406     O      0.030876695000     0.509103730000     0.603534650000    -0.189027   
O407     O      0.410926970000     0.571726390000     0.625645370000    -0.324534   
O408     O      0.407190600000     0.570012710000     0.585736140000    -0.278266   
O409     O      0.047847750000     0.545678285000     0.600693055000    -0.327592   
Zn0      Zn     0.854781150000     0.297413020000     0.353741550000     11.6221    
Zn1      Zn     0.801684080000     0.302036435000     0.340145550000    -39.5627    
Zn2      Zn     0.820769280000     0.063419870000     0.341974050000     1.43201    
Zn3      Zn     0.863131950000     0.033491885000     0.363337650000     1.47173    
Zn4      Zn     0.822756170000     0.042749785000     0.093939965000     1.26074    
Zn5      Zn     0.877343415000     0.055933170000     0.109538385000     1.26107    
Zn6      Zn     0.614946360000     0.307540050000     0.147817350000     1.0354     
Zn7      Zn     0.593337015000     0.291723000000     0.099918740000     2.12308    
Zn8      Zn     0.592782675000     0.296690850000     0.329890300000    -0.940459   
Zn9      Zn     0.652107820000     0.298732150000     0.330501615000     1.44961    
Zn10     Zn     0.600891015000     0.075228385000     0.105282975000     1.28979    
Zn11     Zn     0.596796765000     0.023481950000     0.112348660000     1.29637    
H12      H      0.530766065000     0.360645385000     0.145051050000    -0.479552   
H13      H      0.579845735000     0.363411875000     0.140186520000     1.36086    
H14      H      0.610241265000     0.341763375000     0.166874035000    -0.301682   
H15      H      0.542412255000     0.315438200000     0.204279050000     0.055738   
H16      H      0.512204185000     0.336651750000     0.177154975000     0.247367   
H17      H      0.630654735000     0.260675580000     0.207407190000     0.063838   
H18      H      0.704077765000     0.249085650000     0.266602785000     0.031226   
H19      H      0.676751690000     0.228049770000     0.295070200000     0.03739    
H20      H      0.627934590000     0.233937050000     0.295878000000     0.002275   
H21      H      0.606220970000     0.262129550000     0.269134650000     0.073182   
H22      H      0.632003160000     0.361580350000     0.217879890000     0.065881   
H23      H      0.618834125000     0.403040400000     0.225383565000     0.008603   
H24      H      0.574705355000     0.412388200000     0.242623880000     0.056025   
H25      H      0.543569790000     0.380156070000     0.252405700000     0.02844    
H26      H      0.556335670000     0.338597800000     0.244776370000     0.073104   
H27      H      0.673765940000     0.314860550000     0.238332735000     0.064546   
H28      H      0.705966650000     0.333046850000     0.212239920000     0.008147   
H29      H      0.739927860000     0.308724050000     0.191912875000     0.034454   
H30      H      0.740786450000     0.265317000000     0.197278530000     0.025049   
H31      H      0.708416350000     0.246655465000     0.223179550000     0.053397   
H32      H      0.623077900000     0.325490830000     0.018889845000     0.038505   
H33      H      0.675005480000     0.241894600000     0.481697150000     0.043094   
H34      H      0.659181790000     0.312956900000     0.002776565000     0.034742   
H35      H      0.593534200000     0.262379550000     0.441473650000     0.062778   
H36      H      0.564414025000     0.387874930000     0.494924350000     0.088457   
H37      H      0.518067040000     0.383706870000     0.002160370000     0.016163   
H38      H      0.535452675000     0.363940650000     0.021754980000     0.037114   
H39      H      0.520091520000     0.352783550000     0.494614200000    -0.00296    
H40      H      0.572481095000     0.305563700000     0.405665400000     0.069125   
H41      H      0.568293385000     0.274144175000     0.407929630000     0.053771   
H42      H      0.539662395000     0.292669700000     0.402981550000     0.027201   
H43      H      0.544782480000     0.278335050000     0.445196550000     0.020575   
H44      H      0.540605345000     0.308412350000     0.442832770000     0.01469    
H45      H      0.573002875000     0.386365100000     0.451469630000     0.061056   
H46      H      0.599323150000     0.368104250000     0.439359650000     0.069032   
H47      H      0.571535855000     0.377176000000     0.421118000000     0.055772   
H48      H      0.564915895000     0.337409230000     0.429946780000     0.033447   
H49      H      0.540492705000     0.353217065000     0.446969775000     0.014218   
H50      H      0.701986500000     0.296474280000     0.007805290000     0.067956   
H51      H      0.720393985000     0.266379050000     0.031073330000     0.029009   
H52      H      0.697681800000     0.245242315000     0.018172860000     0.045535   
H53      H      0.685316580000     0.268146150000     0.038007320000     0.040736   
H54      H      0.624665565000     0.316004400000     0.265544175000     0.103052   
H55      H      0.603394200000     0.277295470000     0.242747275000     0.02719    
H56      H      0.649512960000     0.330232350000     0.249436450000     0.08642    
H57      H      0.622699125000     0.261434250000     0.221528650000     0.069418   
H58      H      0.648867475000     0.336202300000     0.200089050000     0.146345   
H59      H      0.643071620000     0.312349950000     0.179717570000     0.161114   
H60      H      0.676889880000     0.310012300000     0.219108865000     0.078479   
H61      H      0.663044470000     0.285246250000     0.203051520000     0.014264   
H62      H      0.576122195000     0.359215615000     0.210718825000     0.643648   
H63      H      0.608390780000     0.316810280000     0.154664010000     1.37845    
H64      H      0.639738140000     0.289999125000     0.286704800000     0.013532   
H65      H      0.673692800000     0.252853600000     0.227098250000     0.012253   
H66      H      0.615702680000     0.348257480000     0.230408265000     0.156841   
H67      H      0.609828400000     0.282575430000     0.190248115000    -0.215168   
H68      H      0.596353330000     0.347473100000     0.277184550000     0.159498   
H69      H      0.580631795000     0.365629200000     0.255013585000     0.123979   
H70      H      0.560650970000     0.346627175000     0.272825900000     0.072458   
H71      H      0.565529540000     0.329546125000     0.233272525000     0.031518   
H72      H      0.580680445000     0.311337235000     0.254614470000     0.016631   
H73      H      0.549437750000     0.306175200000     0.182662450000     0.116327   
H74      H      0.568647705000     0.282568930000     0.168753965000     0.163865   
H75      H      0.538219540000     0.276482850000     0.184020015000     0.068741   
H76      H      0.570797035000     0.265061320000     0.210923925000     0.024335   
H77      H      0.560966175000     0.292862030000     0.221943170000     0.036608   
H78      H      0.808831650000     0.307822850000     0.379715530000     6.56903    
H79      H      0.721154215000     0.287343530000     0.388205050000    -0.04149    
H80      H      0.700207550000     0.260041835000     0.298928915000     0.186623   
H81      H      0.827410450000     0.316047520000     0.277490080000     0.318455   
H82      H      0.622514050000     0.387109750000     0.325734300000     0.153658   
H83      H      0.773905750000     0.324092865000     0.283655550000    -0.193835   
H84      H      0.744284810000     0.330594120000     0.300649525000    -0.263986   
H85      H      0.716818290000     0.307829100000     0.270920250000     0.182652   
H86      H      0.625186160000     0.262985615000     0.327729150000    -0.019126   
H87      H      0.734279635000     0.332274885000     0.258108400000     0.11173    
H88      H      0.746542975000     0.302547500000     0.253710715000     0.205464   
H89      H      0.667195710000     0.352428975000     0.297334880000     0.053121   
H90      H      0.696118160000     0.334025550000     0.302184435000     0.044859   
H91      H      0.719487500000     0.367394650000     0.322519750000     0.090444   
H92      H      0.709578560000     0.374337100000     0.292618700000     0.059565   
H93      H      0.690733835000     0.386078120000     0.317233150000     0.085566   
H94      H      0.693842815000     0.076186400000     0.147065520000     0.056703   
H95      H      0.643544180000     0.002842850000     0.129638075000     0.112876   
H96      H      0.823372300000     0.133718850000     0.056727575000     0.153055   
H97      H      0.762349650000     0.138665185000     0.133964200000     0.061868   
H98      H      0.732461035000     0.122200260000     0.140621400000     0.058093   
H99      H      0.761002450000     0.121437275000     0.160345950000     0.058169   
H100     H      0.758024350000     0.084480040000     0.136267425000     0.02815    
H101     H      0.787837180000     0.100680100000     0.129931950000     0.034582   
H102     H      0.762753070000     0.118669500000     0.094387480000     0.062963   
H103     H      0.735345170000     0.100600700000     0.100390710000     0.055237   
H104     H      0.653595075000     0.098389475000     0.216513770000     0.06204    
H105     H      0.618980875000     0.090733590000     0.210780800000     0.073994   
H106     H      0.637721570000     0.075780010000     0.233456390000     0.064611   
H107     H      0.633514315000     0.050064260000     0.198213560000     0.049579   
H108     H      0.667750600000     0.058150365000     0.203007670000     0.030396   
H109     H      0.663515200000     0.090089845000     0.173509225000     0.057959   
H110     H      0.629812200000     0.083066755000     0.167427900000     0.089136   
H111     H      0.739190750000     0.489087550000     0.084349030000     0.171379   
H112     H      0.800635665000     0.024970335000     0.001289825000     0.164678   
H113     H      0.692150235000     0.001836435000     0.067638790000     0.167077   
H114     H      0.934032470000     0.458237470000     0.052340845000     0.048599   
H115     H      0.905567600000     0.444532275000     0.065464890000     0.039401   
H116     H      0.903206700000     0.473994750000     0.054209610000     0.048918   
H117     H      0.933428850000     0.456555130000     0.098503485000     0.031778   
H118     H      0.905882250000     0.475432100000     0.098160965000     0.027819   
H119     H      0.950427000000     0.115160400000     0.184845640000     0.066476   
H120     H      0.975372050000     0.120554870000     0.162886725000     0.06029    
H121     H      0.943012500000     0.134748920000     0.161667230000     0.051325   
H122     H      0.936266720000     0.105630830000     0.133330315000     0.054736   
H123     H      0.924206600000     0.091599210000     0.159844680000     0.067509   
H124     H      0.528311430000     0.084477580000     0.090226895000     0.081588   
H125     H      0.518060565000     0.110546700000     0.105680405000     0.072682   
H126     H      0.552786825000     0.105978110000     0.099757535000     0.065684   
H127     H      0.540503445000     0.099483215000     0.141388850000     0.045672   
H128     H      0.556097985000     0.074576260000     0.128860175000     0.001847   
H129     H      0.508293510000     0.467182070000     0.113068335000     0.111766   
H130     H      0.975236700000     0.455962720000     0.118612800000     0.073953   
H131     H      0.500079630000     0.437292300000     0.104935965000     0.087395   
H132     H      0.969905250000     0.450114700000     0.073642240000     0.023623   
H133     H      0.501238585000     0.463904150000     0.070271985000     0.050667   
H134     H      0.922397900000     0.044800930000     0.052114215000     0.08311    
H135     H      0.914619775000     0.015808400000     0.040885295000     0.060751   
H136     H      0.887950350000     0.036250295000     0.047444515000     0.046945   
H137     H      0.893297585000     0.005029930000     0.077343880000     0.007754   
H138     H      0.895910050000     0.031818555000     0.090425515000    -0.092089   
C139     C      0.622800575000     0.318549600000     0.265320865000     0.061482   
C140     C      0.602142630000     0.279804080000     0.173161950000     0.664252   
C141     C      0.571722335000     0.352690300000     0.154001475000    -4.94829    
C142     C      0.588903740000     0.340376200000     0.169074120000     7.6295     
C143     C      0.578500800000     0.326098380000     0.186752230000     1.12387    
C144     C      0.550747895000     0.325405550000     0.189987465000    -0.005355   
C145     C      0.533596125000     0.337623350000     0.174828425000    -0.858299   
C146     C      0.544065420000     0.351167320000     0.156760035000     2.08455    
C147     C      0.602664090000     0.322452875000     0.225308535000    -0.100093   
C148     C      0.617718525000     0.309115915000     0.241564550000     0.139478   
C149     C      0.628214050000     0.286922600000     0.234871565000    -0.015962   
C150     C      0.622735225000     0.277831500000     0.212412760000    -0.205585   
C151     C      0.606895590000     0.290363430000     0.196496600000     0.100074   
C152     C      0.596614735000     0.312869800000     0.202821640000    -1.35186    
C153     C      0.670815470000     0.267802120000     0.250562900000    -0.045154   
C154     C      0.682714880000     0.252158200000     0.266683050000     0.056739   
C155     C      0.667336750000     0.240212915000     0.283000800000     0.087119   
C156     C      0.639841080000     0.243714080000     0.283623370000     0.1884     
C157     C      0.627663950000     0.259637175000     0.268368550000    -0.131448   
C158     C      0.642809375000     0.271791900000     0.251758365000     0.112241   
C159     C      0.595124470000     0.347194820000     0.230915130000     0.206983   
C160     C      0.612711170000     0.365497700000     0.225511180000    -0.287013   
C161     C      0.605284730000     0.388949335000     0.229658290000     0.06934    
C162     C      0.580373445000     0.394218830000     0.239333720000    -0.105972   
C163     C      0.562841520000     0.376041800000     0.244882775000    -0.023451   
C164     C      0.570128785000     0.352562550000     0.240630050000    -0.214742   
C165     C      0.688310265000     0.279152250000     0.232914400000     0.08129    
C166     C      0.687828450000     0.303635050000     0.229380665000    -0.182201   
C167     C      0.706347765000     0.314162150000     0.214614450000     0.013855   
C168     C      0.725443465000     0.300415900000     0.203055815000    -0.070205   
C169     C      0.725900575000     0.276057720000     0.206059010000     0.006161   
C170     C      0.707449690000     0.265491300000     0.220830000000    -0.084661   
C171     C      0.627386125000     0.233008070000     0.462006500000     0.262834   
C172     C      0.602118215000     0.366450050000     0.022384105000     0.261028   
C173     C      0.572631405000     0.338153350000     0.468100200000    -0.025934   
C174     C      0.592079110000     0.347773820000     0.006789385000    -0.070785   
C175     C      0.662087620000     0.257229030000     0.481319750000    -0.019039   
C176     C      0.670130640000     0.277918100000     0.492960065000     0.016776   
C177     C      0.652533860000     0.297048570000     0.493732630000    -0.030437   
C178     C      0.627219335000     0.295882015000     0.482341020000    -0.015643   
C179     C      0.620901385000     0.276260970000     0.468088565000     0.05504    
C180     C      0.608025535000     0.313824600000     0.484861670000    -0.007965   
C181     C      0.587088085000     0.316441650000     0.467950500000    -0.012724   
C182     C      0.581331350000     0.296960325000     0.452546800000     0.021838   
C183     C      0.598211975000     0.277130785000     0.453114250000    -0.075003   
C184     C      0.608834170000     0.328523130000     0.004702210000    -0.007753   
C185     C      0.572940200000     0.352322070000     0.488882600000     0.056184   
C186     C      0.637195810000     0.256033125000     0.469722100000    -0.078117   
C187     C      0.531038855000     0.367834420000     0.002928735000    -0.000223   
C188     C      0.555104455000     0.294177700000     0.438969670000    -0.061547   
C189     C      0.559248925000     0.291540830000     0.412292330000    -0.14325    
C190     C      0.562135270000     0.349190100000     0.445379150000    -0.036377   
C191     C      0.577465765000     0.371561380000     0.439134500000    -0.151271   
C192     C      0.699857190000     0.263964770000     0.023831725000    -0.087553   
C193     C      0.602602675000     0.497572150000     0.109329505000     0.022477   
C194     C      0.598884130000     0.327858030000     0.121252250000     0.139936   
C195     C      0.601992130000     0.471307350000     0.111156290000     0.044013   
C196     C      0.599430970000     0.354111600000     0.119399125000    -0.13254    
C197     C      0.601499280000     0.449454950000     0.112679885000     0.005711   
C198     C      0.599895290000     0.375973165000     0.117855745000    -0.109857   
C199     C      0.600926510000     0.423601150000     0.114496985000    -0.003155   
C200     C      0.600451320000     0.401821375000     0.116029220000     0.013683   
C201     C      0.854392300000     0.053975740000     0.062014995000     0.439961   
C202     C      0.840588630000     0.044047920000     0.393837480000     0.253511   
C203     C      0.852256120000     0.052439405000     0.035989345000     0.997419   
C204     C      0.842724770000     0.045584255000     0.419863135000    -0.082077   
C205     C      0.850477900000     0.051160465000     0.014324305000    -0.344142   
C206     C      0.844502950000     0.046863150000     0.441528170000     0.07162    
C207     C      0.848379550000     0.049651295000     0.488758775000     0.13896    
C208     C      0.846601365000     0.048372365000     0.467093700000    -0.096581   
C209     C      0.599788860000     0.242880670000     0.123337715000    -0.391988   
C210     C      0.600139850000     0.221252500000     0.120274170000     0.225659   
C211     C      0.600911565000     0.174305200000     0.113658940000     0.046493   
C212     C      0.601330645000     0.148839650000     0.110066475000    -0.015954   
C213     C      0.601681545000     0.127217200000     0.107003755000     0.009322   
C214     C      0.599382675000     0.268712650000     0.127029450000     1.16006    
C215     C      0.602091140000     0.101391145000     0.103311775000     0.075048   
C216     C      0.600555420000     0.195786790000     0.116682775000    -0.104372   
C217     C      0.656909170000     0.279589300000     0.251919650000    -0.102807   
C218     C      0.610211410000     0.329359175000     0.232229190000    -0.419538   
C219     C      0.602061840000     0.291044385000     0.206730815000     0.312738   
C220     C      0.632226810000     0.318014250000     0.247502820000    -0.117896   
C221     C      0.616849295000     0.279514370000     0.227417230000    -0.055574   
C222     C      0.640829450000     0.317971600000     0.198477490000    -0.582945   
C223     C      0.610875120000     0.317608980000     0.206588670000     1.6322     
C224     C      0.641592740000     0.294473320000     0.235567285000    -0.019972   
C225     C      0.657885610000     0.301234500000     0.213699200000     0.062113   
C226     C      0.577639500000     0.348811850000     0.194674800000    -1.98415    
C227     C      0.594829670000     0.327452850000     0.165032650000    -7.41071    
C228     C      0.594991855000     0.330853750000     0.189360185000    -0.484325   
C229     C      0.649242775000     0.277392400000     0.275209575000     0.094212   
C230     C      0.667387575000     0.257885450000     0.244655950000     0.058231   
C231     C      0.582888250000     0.328320475000     0.245385915000     0.118772   
C232     C      0.580086180000     0.348254900000     0.263730250000    -0.185161   
C233     C      0.571843850000     0.284258050000     0.207339690000     0.006247   
C234     C      0.556356960000     0.287714150000     0.184200125000    -0.166478   
C235     C      0.839040700000     0.448956650000     0.352265600000    -0.065743   
C236     C      0.771823200000     0.375264750000     0.344829915000     0.188741   
C237     C      0.891628175000     0.005311015000     0.358052800000     0.407297   
C238     C      0.791666330000     0.394381585000     0.346942300000    -0.189132   
C239     C      0.871796280000     0.486179950000     0.355912180000    -0.184813   
C240     C      0.807031650000     0.411215950000     0.348645400000    -0.028799   
C241     C      0.856445520000     0.469334275000     0.354220450000     0.061996   
C242     C      0.824447500000     0.431582900000     0.350614580000    -0.064445   
C243     C      0.847703750000     0.046370310000     0.143393400000     0.42414    
C244     C      0.847807525000     0.051437780000     0.312375785000     0.269035   
C245     C      0.847714350000     0.047149365000     0.169560225000    -0.139606   
C246     C      0.847770400000     0.050643020000     0.286208870000    -0.09249    
C247     C      0.847718600000     0.047799265000     0.191318800000     0.072196   
C248     C      0.847745300000     0.049987180000     0.264450200000     0.038512   
C249     C      0.847720750000     0.048561535000     0.217002660000    -0.030504   
C250     C      0.847729115000     0.049212780000     0.238766385000    -0.011629   
C251     C      0.590528800000     0.298186750000     0.327853700000     3.44529    
C252     C      0.633203685000     0.322730300000     0.330198375000     0.233991   
C253     C      0.770463200000     0.298109830000     0.320473650000     10.6292    
C254     C      0.661373975000     0.323115765000     0.331860425000    -0.526545   
C255     C      0.756546550000     0.302935000000     0.341413750000    -7.60748    
C256     C      0.675762450000     0.301912950000     0.333866565000     0.307517   
C257     C      0.727919750000     0.303182100000     0.340218125000     2.60744    
C258     C      0.704103485000     0.302789050000     0.337825000000    -1.43669    
C259     C      0.842058035000     0.301489385000     0.344209250000    -47.5184    
C260     C      0.770345900000     0.306559600000     0.362869700000     14.3812    
C261     C      0.662752135000     0.280150200000     0.331469120000    -1.0356     
C262     C      0.798180520000     0.305344880000     0.363128065000    -29.3402    
C263     C      0.635086950000     0.279730150000     0.328753550000     0.261274   
C264     C      0.753916620000     0.317378135000     0.288712800000     0.886539   
C265     C      0.736800775000     0.314830850000     0.266458275000    -0.442833   
C266     C      0.684266750000     0.348957420000     0.309580800000     0.031331   
C267     C      0.702133090000     0.370572950000     0.310576500000    -0.176367   
C268     C      0.812565250000     0.300513030000     0.342454525000     91.5434    
C269     C      0.619959080000     0.300505200000     0.328605500000    -1.32521    
C270     C      0.798455900000     0.295321050000     0.320999025000    -15.5152    
C271     C      0.765059770000     0.041585880000     0.070403950000    -0.081917   
C272     C      0.757012100000     0.059034370000     0.086802380000    -0.023539   
C273     C      0.734102710000     0.054605190000     0.101309180000     0.013516   
C274     C      0.614002215000     0.033273700000     0.154285460000     0.239117   
C275     C      0.642798050000     0.036149290000     0.148837210000    -0.139295   
C276     C      0.654149575000     0.019024035000     0.133730320000     0.01429    
C277     C      0.677480670000     0.023450530000     0.121434270000    -0.072107   
C278     C      0.691381365000     0.044534455000     0.125968550000     0.063988   
C279     C      0.682283600000     0.060391255000     0.143270910000    -0.112699   
C280     C      0.657973485000     0.056688505000     0.154828000000     0.093443   
C281     C      0.769932600000     0.081141480000     0.087866165000     0.030765   
C282     C      0.793766700000     0.084299440000     0.074911650000    -0.12176    
C283     C      0.787320800000     0.045562930000     0.056026705000    -0.055708   
C284     C      0.714818015000     0.050260960000     0.112886375000    -0.027066   
C285     C      0.803799450000     0.065548150000     0.060591620000    -0.033162   
C286     C      0.832717270000     0.064578665000     0.053903485000     0.341412   
C287     C      0.807610000000     0.107400825000     0.075400770000     0.301566   
C288     C      0.757469030000     0.101396865000     0.101953330000    -0.105221   
C289     C      0.765718150000     0.100762660000     0.128124350000    -0.02016    
C290     C      0.754642070000     0.122115440000     0.141542850000    -0.158037   
C291     C      0.649152665000     0.075151190000     0.172843290000    -0.129491   
C292     C      0.647776840000     0.064971930000     0.197758600000    -0.006324   
C293     C      0.638977335000     0.083701140000     0.215700200000    -0.164901   
C294     C      0.750237200000     0.019003620000     0.068436040000     0.299668   
C295     C      0.793098700000     0.028953325000     0.036068150000     0.329366   
C296     C      0.685022620000     0.006764400000     0.102316825000     0.242618   
C297     C      0.831939370000     0.148710850000     0.352141300000     0.065009   
C298     C      0.832414300000     0.170077310000     0.350795350000    -0.120545   
C299     C      0.834100485000     0.245941450000     0.346016600000     0.815276   
C300     C      0.830253200000     0.072846720000     0.356920100000    -0.694658   
C301     C      0.830867680000     0.100492885000     0.355178625000     0.207052   
C302     C      0.833486000000     0.218295290000     0.347758050000    -0.352723   
C303     C      0.831342430000     0.121853410000     0.353833100000    -0.125378   
C304     C      0.833011270000     0.196934775000     0.349103570000     0.144508   
C305     C      0.961138800000     0.077156470000     0.145698635000     0.005043   
C306     C      0.924141700000     0.470909450000     0.088184745000    -0.056463   
C307     C      0.916364300000     0.461430100000     0.063582350000    -0.140659   
C308     C      0.942131350000     0.097870080000     0.150413990000    -0.046804   
C309     C      0.953671700000     0.118146175000     0.165815000000    -0.145692   
C310     C      0.537419915000     0.084968240000     0.128214400000    -0.029141   
C311     C      0.533906280000     0.097082930000     0.104474485000    -0.172652   
C312     C      0.983301000000     0.463558735000     0.081643695000    -0.030873   
C313     C      0.992175815000     0.455561300000     0.106115525000    -0.210336   
C314     C      0.906482430000     0.020538450000     0.078299575000     0.020047   
C315     C      0.907996550000     0.030038080000     0.053210060000    -0.156304   
C316     C      0.920606750000     0.066585960000     0.105537660000     0.177575   
C317     C      0.527795135000     0.031792280000     0.102486500000     0.294649   
C318     C      0.978862750000     0.072311590000     0.164345600000     0.01466    
C319     C      0.505942345000     0.071575435000     0.159127680000     0.026561   
C320     C      0.513506355000     0.070221670000     0.135309680000     0.014407   
C321     C      0.994297830000     0.060588255000     0.118844360000    -0.018133   
C322     C      0.967041650000     0.066290945000     0.122716635000     0.022806   
C323     C      0.500697195000     0.041825970000     0.102778690000    -0.047367   
C324     C      0.980111865000     0.028450380000     0.091623760000     0.004107   
C325     C      0.953067000000     0.034237215000     0.094562895000     0.021631   
C326     C      0.947308125000     0.056324565000     0.106389480000    -0.057832   
C327     C      0.986104650000     0.007352770000     0.079447030000     0.021603   
C328     C      0.970380500000     0.487786350000     0.083071210000    -0.014416   
C329     C      0.943070150000     0.491790900000     0.087002820000     0.001687   
C330     C      0.933967000000     0.015729850000     0.088200090000    -0.032535   
S331     S      0.615166605000     0.349931120000     0.330125780000     0.288355   
S332     S      0.753318650000     0.312796475000     0.389513225000    -3.98048    
S333     S      0.680691570000     0.253192750000     0.331980600000     0.699134   
S334     S      0.814882050000     0.284554750000     0.295156950000     4.0499     
I335     I      0.964516670000     0.068937080000     0.199668140000    -0.114374   
I336     I      0.534735205000     0.074763245000     0.186670275000    -0.088263   
I337     I      0.500343560000     0.009724780000     0.044916140000    -0.092768   
N338     N      0.555486025000     0.372130900000     0.490391375000    -0.165156   
N339     N      0.695750370000     0.279484035000     0.004079700000    -0.133643   
N340     N      0.565199055000     0.354246600000     0.175001160000     0.049238   
N341     N      0.576390580000     0.341845570000     0.156194760000     1.13249    
N342     N      0.653308930000     0.255378400000     0.281173170000    -0.198384   
N343     N      0.664500460000     0.242977380000     0.262366800000    -0.145188   
O344     O      0.598295070000     0.257215100000     0.170949965000    -0.306822   
O345     O      0.647158500000     0.319491050000     0.273006900000    -0.222524   
O346     O      0.602840630000     0.325908300000     0.277804225000    -0.243307   
O347     O      0.602977165000     0.293401600000     0.155190020000    -0.572352   
O348     O      0.644441320000     0.217909550000     0.453463225000    -0.213662   
O349     O      0.602229415000     0.228087085000     0.465179850000    -0.222679   
O350     O      0.627719100000     0.370379150000     0.021338045000    -0.2111     
O351     O      0.585507200000     0.380556675000     0.033054650000    -0.210852   
O352     O      0.579981545000     0.009323775000     0.105871745000    -0.661061   
O353     O      0.625755220000     0.008813145000     0.111216850000    -0.433736   
O354     O      0.601118565000     0.314559600000     0.101864725000    -0.668017   
O355     O      0.596217590000     0.318156500000     0.142269685000     0.21547    
O356     O      0.875354825000     0.063948085000     0.071959615000    -0.364173   
O357     O      0.835306970000     0.045353545000     0.074941875000    -0.820744   
O358     O      0.850308200000     0.025628015000     0.382583750000    -0.625657   
O359     O      0.828991850000     0.061117695000     0.382219800000    -0.094488   
O360     O      0.609919010000     0.087727480000     0.120500865000    -0.769636   
O361     O      0.594617040000     0.092320555000     0.082864315000    -0.459622   
O362     O      0.606856785000     0.277783200000     0.147476900000    -0.414639   
O363     O      0.591554805000     0.282376230000     0.109840340000    -2.31788    
O364     O      0.746307550000     0.381778800000     0.342817875000    -0.238367   
O365     O      0.917137535000     0.498794735000     0.360242750000    -0.213448   
O366     O      0.779858320000     0.352603080000     0.345184850000    -0.364101   
O367     O      0.883586750000     0.027970435000     0.357875750000    -0.886236   
O368     O      0.869337170000     0.052163975000     0.132003980000    -0.742161   
O369     O      0.826065800000     0.039888820000     0.131755160000    -0.488122   
O370     O      0.840685200000     0.070840865000     0.323566250000    -0.490367   
O371     O      0.854792150000     0.032682125000     0.324212150000    -0.336348   
O372     O      0.576528015000     0.311850370000     0.341305550000    -1.01596    
O373     O      0.856098600000     0.286713850000     0.332021300000     8.9842     
O374     O      0.579196340000     0.281934250000     0.314724700000    -1.01791    
O375     O      0.772638950000     0.320491550000     0.408628200000     0.444606   
O376     O      0.733213065000     0.332126750000     0.385687770000     0.531151   
O377     O      0.737459375000     0.288394550000     0.398233650000     0.325049   
O378     O      0.690210090000     0.248951800000     0.356824220000    -0.271031   
O379     O      0.663336665000     0.232978580000     0.323904485000    -0.28411    
O380     O      0.853430250000     0.316629975000     0.358602150000     6.11187    
O381     O      0.707401365000     0.254664650000     0.314305780000    -0.348271   
O382     O      0.828671750000     0.261755600000     0.300837150000    -1.7515     
O383     O      0.795927850000     0.279823720000     0.274850450000    -0.907192   
O384     O      0.837627770000     0.304298000000     0.286683150000    -1.37127    
O385     O      0.595187985000     0.349401830000     0.310200350000    -0.228482   
O386     O      0.600697480000     0.352910900000     0.353081525000    -0.174521   
O387     O      0.634919940000     0.373542665000     0.326891100000    -0.271901   
O388     O      0.756199775000     0.295197250000     0.299558600000    -2.65893    
O389     O      0.675020920000     0.344276550000     0.332570730000    -0.027573   
O390     O      0.600780620000     0.050313115000     0.163326160000    -0.250966   
O391     O      0.602002280000     0.014994460000     0.146345185000    -0.350464   
O392     O      0.841133800000     0.046332975000     0.043052585000    -0.986085   
O393     O      0.849399475000     0.079874755000     0.062086215000    -0.328245   
O394     O      0.813637970000     0.116936600000     0.094221940000    -0.271959   
O395     O      0.814049570000     0.118061900000     0.054132660000    -0.299479   
O396     O      0.739614380000     0.013115595000     0.049692810000    -0.222627   
O397     O      0.748944075000     0.004366815000     0.088009695000    -0.326699   
O398     O      0.795111715000     0.007793035000     0.039446655000    -0.241284   
O399     O      0.796672165000     0.037816020000     0.013418150000    -0.276631   
O400     O      0.685953320000     0.485627200000     0.106107850000    -0.204405   
O401     O      0.689289720000     0.015082690000     0.079583885000    -0.29276    
O402     O      0.811992675000     0.259394230000     0.349501200000    -2.79777    
O403     O      0.852360950000     0.059393940000     0.353435500000    -0.310503   
O404     O      0.856771050000     0.257810550000     0.340936900000    -2.48212    
O405     O      0.807582600000     0.060977595000     0.361999800000    -0.404456   
O406     O      0.530876695000     0.009103730000     0.103534650000    -0.189027   
O407     O      0.910926970000     0.071726390000     0.125645370000    -0.324534   
O408     O      0.907190600000     0.070012710000     0.085736140000    -0.278266   
O409     O      0.547847750000     0.045678285000     0.100693055000    -0.327592   
Zn0      Zn     0.854781150000     0.297413020000     0.853741550000     11.6221    
Zn1      Zn     0.801684080000     0.302036435000     0.840145550000    -39.5627    
Zn2      Zn     0.820769280000     0.063419870000     0.841974050000     1.43201    
Zn3      Zn     0.863131950000     0.033491885000     0.863337650000     1.47173    
Zn4      Zn     0.822756170000     0.042749785000     0.593939965000     1.26074    
Zn5      Zn     0.877343415000     0.055933170000     0.609538385000     1.26107    
Zn6      Zn     0.614946360000     0.307540050000     0.647817350000     1.0354     
Zn7      Zn     0.593337015000     0.291723000000     0.599918740000     2.12308    
Zn8      Zn     0.592782675000     0.296690850000     0.829890300000    -0.940459   
Zn9      Zn     0.652107820000     0.298732150000     0.830501615000     1.44961    
Zn10     Zn     0.600891015000     0.075228385000     0.605282975000     1.28979    
Zn11     Zn     0.596796765000     0.023481950000     0.612348660000     1.29637    
H12      H      0.530766065000     0.360645385000     0.645051050000    -0.479552   
H13      H      0.579845735000     0.363411875000     0.640186520000     1.36086    
H14      H      0.610241265000     0.341763375000     0.666874035000    -0.301682   
H15      H      0.542412255000     0.315438200000     0.704279050000     0.055738   
H16      H      0.512204185000     0.336651750000     0.677154975000     0.247367   
H17      H      0.630654735000     0.260675580000     0.707407190000     0.063838   
H18      H      0.704077765000     0.249085650000     0.766602785000     0.031226   
H19      H      0.676751690000     0.228049770000     0.795070200000     0.03739    
H20      H      0.627934590000     0.233937050000     0.795878000000     0.002275   
H21      H      0.606220970000     0.262129550000     0.769134650000     0.073182   
H22      H      0.632003160000     0.361580350000     0.717879890000     0.065881   
H23      H      0.618834125000     0.403040400000     0.725383565000     0.008603   
H24      H      0.574705355000     0.412388200000     0.742623880000     0.056025   
H25      H      0.543569790000     0.380156070000     0.752405700000     0.02844    
H26      H      0.556335670000     0.338597800000     0.744776370000     0.073104   
H27      H      0.673765940000     0.314860550000     0.738332735000     0.064546   
H28      H      0.705966650000     0.333046850000     0.712239920000     0.008147   
H29      H      0.739927860000     0.308724050000     0.691912875000     0.034454   
H30      H      0.740786450000     0.265317000000     0.697278530000     0.025049   
H31      H      0.708416350000     0.246655465000     0.723179550000     0.053397   
H32      H      0.623077900000     0.325490830000     0.518889845000     0.038505   
H33      H      0.675005480000     0.241894600000     0.981697150000     0.043094   
H34      H      0.659181790000     0.312956900000     0.502776565000     0.034742   
H35      H      0.593534200000     0.262379550000     0.941473650000     0.062778   
H36      H      0.564414025000     0.387874930000     0.994924350000     0.088457   
H37      H      0.518067040000     0.383706870000     0.502160370000     0.016163   
H38      H      0.535452675000     0.363940650000     0.521754980000     0.037114   
H39      H      0.520091520000     0.352783550000     0.994614200000    -0.00296    
H40      H      0.572481095000     0.305563700000     0.905665400000     0.069125   
H41      H      0.568293385000     0.274144175000     0.907929630000     0.053771   
H42      H      0.539662395000     0.292669700000     0.902981550000     0.027201   
H43      H      0.544782480000     0.278335050000     0.945196550000     0.020575   
H44      H      0.540605345000     0.308412350000     0.942832770000     0.01469    
H45      H      0.573002875000     0.386365100000     0.951469630000     0.061056   
H46      H      0.599323150000     0.368104250000     0.939359650000     0.069032   
H47      H      0.571535855000     0.377176000000     0.921118000000     0.055772   
H48      H      0.564915895000     0.337409230000     0.929946780000     0.033447   
H49      H      0.540492705000     0.353217065000     0.946969775000     0.014218   
H50      H      0.701986500000     0.296474280000     0.507805290000     0.067956   
H51      H      0.720393985000     0.266379050000     0.531073330000     0.029009   
H52      H      0.697681800000     0.245242315000     0.518172860000     0.045535   
H53      H      0.685316580000     0.268146150000     0.538007320000     0.040736   
H54      H      0.624665565000     0.316004400000     0.765544175000     0.103052   
H55      H      0.603394200000     0.277295470000     0.742747275000     0.02719    
H56      H      0.649512960000     0.330232350000     0.749436450000     0.08642    
H57      H      0.622699125000     0.261434250000     0.721528650000     0.069418   
H58      H      0.648867475000     0.336202300000     0.700089050000     0.146345   
H59      H      0.643071620000     0.312349950000     0.679717570000     0.161114   
H60      H      0.676889880000     0.310012300000     0.719108865000     0.078479   
H61      H      0.663044470000     0.285246250000     0.703051520000     0.014264   
H62      H      0.576122195000     0.359215615000     0.710718825000     0.643648   
H63      H      0.608390780000     0.316810280000     0.654664010000     1.37845    
H64      H      0.639738140000     0.289999125000     0.786704800000     0.013532   
H65      H      0.673692800000     0.252853600000     0.727098250000     0.012253   
H66      H      0.615702680000     0.348257480000     0.730408265000     0.156841   
H67      H      0.609828400000     0.282575430000     0.690248115000    -0.215168   
H68      H      0.596353330000     0.347473100000     0.777184550000     0.159498   
H69      H      0.580631795000     0.365629200000     0.755013585000     0.123979   
H70      H      0.560650970000     0.346627175000     0.772825900000     0.072458   
H71      H      0.565529540000     0.329546125000     0.733272525000     0.031518   
H72      H      0.580680445000     0.311337235000     0.754614470000     0.016631   
H73      H      0.549437750000     0.306175200000     0.682662450000     0.116327   
H74      H      0.568647705000     0.282568930000     0.668753965000     0.163865   
H75      H      0.538219540000     0.276482850000     0.684020015000     0.068741   
H76      H      0.570797035000     0.265061320000     0.710923925000     0.024335   
H77      H      0.560966175000     0.292862030000     0.721943170000     0.036608   
H78      H      0.808831650000     0.307822850000     0.879715530000     6.56903    
H79      H      0.721154215000     0.287343530000     0.888205050000    -0.04149    
H80      H      0.700207550000     0.260041835000     0.798928915000     0.186623   
H81      H      0.827410450000     0.316047520000     0.777490080000     0.318455   
H82      H      0.622514050000     0.387109750000     0.825734300000     0.153658   
H83      H      0.773905750000     0.324092865000     0.783655550000    -0.193835   
H84      H      0.744284810000     0.330594120000     0.800649525000    -0.263986   
H85      H      0.716818290000     0.307829100000     0.770920250000     0.182652   
H86      H      0.625186160000     0.262985615000     0.827729150000    -0.019126   
H87      H      0.734279635000     0.332274885000     0.758108400000     0.11173    
H88      H      0.746542975000     0.302547500000     0.753710715000     0.205464   
H89      H      0.667195710000     0.352428975000     0.797334880000     0.053121   
H90      H      0.696118160000     0.334025550000     0.802184435000     0.044859   
H91      H      0.719487500000     0.367394650000     0.822519750000     0.090444   
H92      H      0.709578560000     0.374337100000     0.792618700000     0.059565   
H93      H      0.690733835000     0.386078120000     0.817233150000     0.085566   
H94      H      0.693842815000     0.076186400000     0.647065520000     0.056703   
H95      H      0.643544180000     0.002842850000     0.629638075000     0.112876   
H96      H      0.823372300000     0.133718850000     0.556727575000     0.153055   
H97      H      0.762349650000     0.138665185000     0.633964200000     0.061868   
H98      H      0.732461035000     0.122200260000     0.640621400000     0.058093   
H99      H      0.761002450000     0.121437275000     0.660345950000     0.058169   
H100     H      0.758024350000     0.084480040000     0.636267425000     0.02815    
H101     H      0.787837180000     0.100680100000     0.629931950000     0.034582   
H102     H      0.762753070000     0.118669500000     0.594387480000     0.062963   
H103     H      0.735345170000     0.100600700000     0.600390710000     0.055237   
H104     H      0.653595075000     0.098389475000     0.716513770000     0.06204    
H105     H      0.618980875000     0.090733590000     0.710780800000     0.073994   
H106     H      0.637721570000     0.075780010000     0.733456390000     0.064611   
H107     H      0.633514315000     0.050064260000     0.698213560000     0.049579   
H108     H      0.667750600000     0.058150365000     0.703007670000     0.030396   
H109     H      0.663515200000     0.090089845000     0.673509225000     0.057959   
H110     H      0.629812200000     0.083066755000     0.667427900000     0.089136   
H111     H      0.739190750000     0.489087550000     0.584349030000     0.171379   
H112     H      0.800635665000     0.024970335000     0.501289825000     0.164678   
H113     H      0.692150235000     0.001836435000     0.567638790000     0.167077   
H114     H      0.934032470000     0.458237470000     0.552340845000     0.048599   
H115     H      0.905567600000     0.444532275000     0.565464890000     0.039401   
H116     H      0.903206700000     0.473994750000     0.554209610000     0.048918   
H117     H      0.933428850000     0.456555130000     0.598503485000     0.031778   
H118     H      0.905882250000     0.475432100000     0.598160965000     0.027819   
H119     H      0.950427000000     0.115160400000     0.684845640000     0.066476   
H120     H      0.975372050000     0.120554870000     0.662886725000     0.06029    
H121     H      0.943012500000     0.134748920000     0.661667230000     0.051325   
H122     H      0.936266720000     0.105630830000     0.633330315000     0.054736   
H123     H      0.924206600000     0.091599210000     0.659844680000     0.067509   
H124     H      0.528311430000     0.084477580000     0.590226895000     0.081588   
H125     H      0.518060565000     0.110546700000     0.605680405000     0.072682   
H126     H      0.552786825000     0.105978110000     0.599757535000     0.065684   
H127     H      0.540503445000     0.099483215000     0.641388850000     0.045672   
H128     H      0.556097985000     0.074576260000     0.628860175000     0.001847   
H129     H      0.508293510000     0.467182070000     0.613068335000     0.111766   
H130     H      0.975236700000     0.455962720000     0.618612800000     0.073953   
H131     H      0.500079630000     0.437292300000     0.604935965000     0.087395   
H132     H      0.969905250000     0.450114700000     0.573642240000     0.023623   
H133     H      0.501238585000     0.463904150000     0.570271985000     0.050667   
H134     H      0.922397900000     0.044800930000     0.552114215000     0.08311    
H135     H      0.914619775000     0.015808400000     0.540885295000     0.060751   
H136     H      0.887950350000     0.036250295000     0.547444515000     0.046945   
H137     H      0.893297585000     0.005029930000     0.577343880000     0.007754   
H138     H      0.895910050000     0.031818555000     0.590425515000    -0.092089   
C139     C      0.622800575000     0.318549600000     0.765320865000     0.061482   
C140     C      0.602142630000     0.279804080000     0.673161950000     0.664252   
C141     C      0.571722335000     0.352690300000     0.654001475000    -4.94829    
C142     C      0.588903740000     0.340376200000     0.669074120000     7.6295     
C143     C      0.578500800000     0.326098380000     0.686752230000     1.12387    
C144     C      0.550747895000     0.325405550000     0.689987465000    -0.005355   
C145     C      0.533596125000     0.337623350000     0.674828425000    -0.858299   
C146     C      0.544065420000     0.351167320000     0.656760035000     2.08455    
C147     C      0.602664090000     0.322452875000     0.725308535000    -0.100093   
C148     C      0.617718525000     0.309115915000     0.741564550000     0.139478   
C149     C      0.628214050000     0.286922600000     0.734871565000    -0.015962   
C150     C      0.622735225000     0.277831500000     0.712412760000    -0.205585   
C151     C      0.606895590000     0.290363430000     0.696496600000     0.100074   
C152     C      0.596614735000     0.312869800000     0.702821640000    -1.35186    
C153     C      0.670815470000     0.267802120000     0.750562900000    -0.045154   
C154     C      0.682714880000     0.252158200000     0.766683050000     0.056739   
C155     C      0.667336750000     0.240212915000     0.783000800000     0.087119   
C156     C      0.639841080000     0.243714080000     0.783623370000     0.1884     
C157     C      0.627663950000     0.259637175000     0.768368550000    -0.131448   
C158     C      0.642809375000     0.271791900000     0.751758365000     0.112241   
C159     C      0.595124470000     0.347194820000     0.730915130000     0.206983   
C160     C      0.612711170000     0.365497700000     0.725511180000    -0.287013   
C161     C      0.605284730000     0.388949335000     0.729658290000     0.06934    
C162     C      0.580373445000     0.394218830000     0.739333720000    -0.105972   
C163     C      0.562841520000     0.376041800000     0.744882775000    -0.023451   
C164     C      0.570128785000     0.352562550000     0.740630050000    -0.214742   
C165     C      0.688310265000     0.279152250000     0.732914400000     0.08129    
C166     C      0.687828450000     0.303635050000     0.729380665000    -0.182201   
C167     C      0.706347765000     0.314162150000     0.714614450000     0.013855   
C168     C      0.725443465000     0.300415900000     0.703055815000    -0.070205   
C169     C      0.725900575000     0.276057720000     0.706059010000     0.006161   
C170     C      0.707449690000     0.265491300000     0.720830000000    -0.084661   
C171     C      0.627386125000     0.233008070000     0.962006500000     0.262834   
C172     C      0.602118215000     0.366450050000     0.522384105000     0.261028   
C173     C      0.572631405000     0.338153350000     0.968100200000    -0.025934   
C174     C      0.592079110000     0.347773820000     0.506789385000    -0.070785   
C175     C      0.662087620000     0.257229030000     0.981319750000    -0.019039   
C176     C      0.670130640000     0.277918100000     0.992960065000     0.016776   
C177     C      0.652533860000     0.297048570000     0.993732630000    -0.030437   
C178     C      0.627219335000     0.295882015000     0.982341020000    -0.015643   
C179     C      0.620901385000     0.276260970000     0.968088565000     0.05504    
C180     C      0.608025535000     0.313824600000     0.984861670000    -0.007965   
C181     C      0.587088085000     0.316441650000     0.967950500000    -0.012724   
C182     C      0.581331350000     0.296960325000     0.952546800000     0.021838   
C183     C      0.598211975000     0.277130785000     0.953114250000    -0.075003   
C184     C      0.608834170000     0.328523130000     0.504702210000    -0.007753   
C185     C      0.572940200000     0.352322070000     0.988882600000     0.056184   
C186     C      0.637195810000     0.256033125000     0.969722100000    -0.078117   
C187     C      0.531038855000     0.367834420000     0.502928735000    -0.000223   
C188     C      0.555104455000     0.294177700000     0.938969670000    -0.061547   
C189     C      0.559248925000     0.291540830000     0.912292330000    -0.14325    
C190     C      0.562135270000     0.349190100000     0.945379150000    -0.036377   
C191     C      0.577465765000     0.371561380000     0.939134500000    -0.151271   
C192     C      0.699857190000     0.263964770000     0.523831725000    -0.087553   
C193     C      0.602602675000     0.497572150000     0.609329505000     0.022477   
C194     C      0.598884130000     0.327858030000     0.621252250000     0.139936   
C195     C      0.601992130000     0.471307350000     0.611156290000     0.044013   
C196     C      0.599430970000     0.354111600000     0.619399125000    -0.13254    
C197     C      0.601499280000     0.449454950000     0.612679885000     0.005711   
C198     C      0.599895290000     0.375973165000     0.617855745000    -0.109857   
C199     C      0.600926510000     0.423601150000     0.614496985000    -0.003155   
C200     C      0.600451320000     0.401821375000     0.616029220000     0.013683   
C201     C      0.854392300000     0.053975740000     0.562014995000     0.439961   
C202     C      0.840588630000     0.044047920000     0.893837480000     0.253511   
C203     C      0.852256120000     0.052439405000     0.535989345000     0.997419   
C204     C      0.842724770000     0.045584255000     0.919863135000    -0.082077   
C205     C      0.850477900000     0.051160465000     0.514324305000    -0.344142   
C206     C      0.844502950000     0.046863150000     0.941528170000     0.07162    
C207     C      0.848379550000     0.049651295000     0.988758775000     0.13896    
C208     C      0.846601365000     0.048372365000     0.967093700000    -0.096581   
C209     C      0.599788860000     0.242880670000     0.623337715000    -0.391988   
C210     C      0.600139850000     0.221252500000     0.620274170000     0.225659   
C211     C      0.600911565000     0.174305200000     0.613658940000     0.046493   
C212     C      0.601330645000     0.148839650000     0.610066475000    -0.015954   
C213     C      0.601681545000     0.127217200000     0.607003755000     0.009322   
C214     C      0.599382675000     0.268712650000     0.627029450000     1.16006    
C215     C      0.602091140000     0.101391145000     0.603311775000     0.075048   
C216     C      0.600555420000     0.195786790000     0.616682775000    -0.104372   
C217     C      0.656909170000     0.279589300000     0.751919650000    -0.102807   
C218     C      0.610211410000     0.329359175000     0.732229190000    -0.419538   
C219     C      0.602061840000     0.291044385000     0.706730815000     0.312738   
C220     C      0.632226810000     0.318014250000     0.747502820000    -0.117896   
C221     C      0.616849295000     0.279514370000     0.727417230000    -0.055574   
C222     C      0.640829450000     0.317971600000     0.698477490000    -0.582945   
C223     C      0.610875120000     0.317608980000     0.706588670000     1.6322     
C224     C      0.641592740000     0.294473320000     0.735567285000    -0.019972   
C225     C      0.657885610000     0.301234500000     0.713699200000     0.062113   
C226     C      0.577639500000     0.348811850000     0.694674800000    -1.98415    
C227     C      0.594829670000     0.327452850000     0.665032650000    -7.41071    
C228     C      0.594991855000     0.330853750000     0.689360185000    -0.484325   
C229     C      0.649242775000     0.277392400000     0.775209575000     0.094212   
C230     C      0.667387575000     0.257885450000     0.744655950000     0.058231   
C231     C      0.582888250000     0.328320475000     0.745385915000     0.118772   
C232     C      0.580086180000     0.348254900000     0.763730250000    -0.185161   
C233     C      0.571843850000     0.284258050000     0.707339690000     0.006247   
C234     C      0.556356960000     0.287714150000     0.684200125000    -0.166478   
C235     C      0.839040700000     0.448956650000     0.852265600000    -0.065743   
C236     C      0.771823200000     0.375264750000     0.844829915000     0.188741   
C237     C      0.891628175000     0.005311015000     0.858052800000     0.407297   
C238     C      0.791666330000     0.394381585000     0.846942300000    -0.189132   
C239     C      0.871796280000     0.486179950000     0.855912180000    -0.184813   
C240     C      0.807031650000     0.411215950000     0.848645400000    -0.028799   
C241     C      0.856445520000     0.469334275000     0.854220450000     0.061996   
C242     C      0.824447500000     0.431582900000     0.850614580000    -0.064445   
C243     C      0.847703750000     0.046370310000     0.643393400000     0.42414    
C244     C      0.847807525000     0.051437780000     0.812375785000     0.269035   
C245     C      0.847714350000     0.047149365000     0.669560225000    -0.139606   
C246     C      0.847770400000     0.050643020000     0.786208870000    -0.09249    
C247     C      0.847718600000     0.047799265000     0.691318800000     0.072196   
C248     C      0.847745300000     0.049987180000     0.764450200000     0.038512   
C249     C      0.847720750000     0.048561535000     0.717002660000    -0.030504   
C250     C      0.847729115000     0.049212780000     0.738766385000    -0.011629   
C251     C      0.590528800000     0.298186750000     0.827853700000     3.44529    
C252     C      0.633203685000     0.322730300000     0.830198375000     0.233991   
C253     C      0.770463200000     0.298109830000     0.820473650000     10.6292    
C254     C      0.661373975000     0.323115765000     0.831860425000    -0.526545   
C255     C      0.756546550000     0.302935000000     0.841413750000    -7.60748    
C256     C      0.675762450000     0.301912950000     0.833866565000     0.307517   
C257     C      0.727919750000     0.303182100000     0.840218125000     2.60744    
C258     C      0.704103485000     0.302789050000     0.837825000000    -1.43669    
C259     C      0.842058035000     0.301489385000     0.844209250000    -47.5184    
C260     C      0.770345900000     0.306559600000     0.862869700000     14.3812    
C261     C      0.662752135000     0.280150200000     0.831469120000    -1.0356     
C262     C      0.798180520000     0.305344880000     0.863128065000    -29.3402    
C263     C      0.635086950000     0.279730150000     0.828753550000     0.261274   
C264     C      0.753916620000     0.317378135000     0.788712800000     0.886539   
C265     C      0.736800775000     0.314830850000     0.766458275000    -0.442833   
C266     C      0.684266750000     0.348957420000     0.809580800000     0.031331   
C267     C      0.702133090000     0.370572950000     0.810576500000    -0.176367   
C268     C      0.812565250000     0.300513030000     0.842454525000     91.5434    
C269     C      0.619959080000     0.300505200000     0.828605500000    -1.32521    
C270     C      0.798455900000     0.295321050000     0.820999025000    -15.5152    
C271     C      0.765059770000     0.041585880000     0.570403950000    -0.081917   
C272     C      0.757012100000     0.059034370000     0.586802380000    -0.023539   
C273     C      0.734102710000     0.054605190000     0.601309180000     0.013516   
C274     C      0.614002215000     0.033273700000     0.654285460000     0.239117   
C275     C      0.642798050000     0.036149290000     0.648837210000    -0.139295   
C276     C      0.654149575000     0.019024035000     0.633730320000     0.01429    
C277     C      0.677480670000     0.023450530000     0.621434270000    -0.072107   
C278     C      0.691381365000     0.044534455000     0.625968550000     0.063988   
C279     C      0.682283600000     0.060391255000     0.643270910000    -0.112699   
C280     C      0.657973485000     0.056688505000     0.654828000000     0.093443   
C281     C      0.769932600000     0.081141480000     0.587866165000     0.030765   
C282     C      0.793766700000     0.084299440000     0.574911650000    -0.12176    
C283     C      0.787320800000     0.045562930000     0.556026705000    -0.055708   
C284     C      0.714818015000     0.050260960000     0.612886375000    -0.027066   
C285     C      0.803799450000     0.065548150000     0.560591620000    -0.033162   
C286     C      0.832717270000     0.064578665000     0.553903485000     0.341412   
C287     C      0.807610000000     0.107400825000     0.575400770000     0.301566   
C288     C      0.757469030000     0.101396865000     0.601953330000    -0.105221   
C289     C      0.765718150000     0.100762660000     0.628124350000    -0.02016    
C290     C      0.754642070000     0.122115440000     0.641542850000    -0.158037   
C291     C      0.649152665000     0.075151190000     0.672843290000    -0.129491   
C292     C      0.647776840000     0.064971930000     0.697758600000    -0.006324   
C293     C      0.638977335000     0.083701140000     0.715700200000    -0.164901   
C294     C      0.750237200000     0.019003620000     0.568436040000     0.299668   
C295     C      0.793098700000     0.028953325000     0.536068150000     0.329366   
C296     C      0.685022620000     0.006764400000     0.602316825000     0.242618   
C297     C      0.831939370000     0.148710850000     0.852141300000     0.065009   
C298     C      0.832414300000     0.170077310000     0.850795350000    -0.120545   
C299     C      0.834100485000     0.245941450000     0.846016600000     0.815276   
C300     C      0.830253200000     0.072846720000     0.856920100000    -0.694658   
C301     C      0.830867680000     0.100492885000     0.855178625000     0.207052   
C302     C      0.833486000000     0.218295290000     0.847758050000    -0.352723   
C303     C      0.831342430000     0.121853410000     0.853833100000    -0.125378   
C304     C      0.833011270000     0.196934775000     0.849103570000     0.144508   
C305     C      0.961138800000     0.077156470000     0.645698635000     0.005043   
C306     C      0.924141700000     0.470909450000     0.588184745000    -0.056463   
C307     C      0.916364300000     0.461430100000     0.563582350000    -0.140659   
C308     C      0.942131350000     0.097870080000     0.650413990000    -0.046804   
C309     C      0.953671700000     0.118146175000     0.665815000000    -0.145692   
C310     C      0.537419915000     0.084968240000     0.628214400000    -0.029141   
C311     C      0.533906280000     0.097082930000     0.604474485000    -0.172652   
C312     C      0.983301000000     0.463558735000     0.581643695000    -0.030873   
C313     C      0.992175815000     0.455561300000     0.606115525000    -0.210336   
C314     C      0.906482430000     0.020538450000     0.578299575000     0.020047   
C315     C      0.907996550000     0.030038080000     0.553210060000    -0.156304   
C316     C      0.920606750000     0.066585960000     0.605537660000     0.177575   
C317     C      0.527795135000     0.031792280000     0.602486500000     0.294649   
C318     C      0.978862750000     0.072311590000     0.664345600000     0.01466    
C319     C      0.505942345000     0.071575435000     0.659127680000     0.026561   
C320     C      0.513506355000     0.070221670000     0.635309680000     0.014407   
C321     C      0.994297830000     0.060588255000     0.618844360000    -0.018133   
C322     C      0.967041650000     0.066290945000     0.622716635000     0.022806   
C323     C      0.500697195000     0.041825970000     0.602778690000    -0.047367   
C324     C      0.980111865000     0.028450380000     0.591623760000     0.004107   
C325     C      0.953067000000     0.034237215000     0.594562895000     0.021631   
C326     C      0.947308125000     0.056324565000     0.606389480000    -0.057832   
C327     C      0.986104650000     0.007352770000     0.579447030000     0.021603   
C328     C      0.970380500000     0.487786350000     0.583071210000    -0.014416   
C329     C      0.943070150000     0.491790900000     0.587002820000     0.001687   
C330     C      0.933967000000     0.015729850000     0.588200090000    -0.032535   
S331     S      0.615166605000     0.349931120000     0.830125780000     0.288355   
S332     S      0.753318650000     0.312796475000     0.889513225000    -3.98048    
S333     S      0.680691570000     0.253192750000     0.831980600000     0.699134   
S334     S      0.814882050000     0.284554750000     0.795156950000     4.0499     
I335     I      0.964516670000     0.068937080000     0.699668140000    -0.114374   
I336     I      0.534735205000     0.074763245000     0.686670275000    -0.088263   
I337     I      0.500343560000     0.009724780000     0.544916140000    -0.092768   
N338     N      0.555486025000     0.372130900000     0.990391375000    -0.165156   
N339     N      0.695750370000     0.279484035000     0.504079700000    -0.133643   
N340     N      0.565199055000     0.354246600000     0.675001160000     0.049238   
N341     N      0.576390580000     0.341845570000     0.656194760000     1.13249    
N342     N      0.653308930000     0.255378400000     0.781173170000    -0.198384   
N343     N      0.664500460000     0.242977380000     0.762366800000    -0.145188   
O344     O      0.598295070000     0.257215100000     0.670949965000    -0.306822   
O345     O      0.647158500000     0.319491050000     0.773006900000    -0.222524   
O346     O      0.602840630000     0.325908300000     0.777804225000    -0.243307   
O347     O      0.602977165000     0.293401600000     0.655190020000    -0.572352   
O348     O      0.644441320000     0.217909550000     0.953463225000    -0.213662   
O349     O      0.602229415000     0.228087085000     0.965179850000    -0.222679   
O350     O      0.627719100000     0.370379150000     0.521338045000    -0.2111     
O351     O      0.585507200000     0.380556675000     0.533054650000    -0.210852   
O352     O      0.579981545000     0.009323775000     0.605871745000    -0.661061   
O353     O      0.625755220000     0.008813145000     0.611216850000    -0.433736   
O354     O      0.601118565000     0.314559600000     0.601864725000    -0.668017   
O355     O      0.596217590000     0.318156500000     0.642269685000     0.21547    
O356     O      0.875354825000     0.063948085000     0.571959615000    -0.364173   
O357     O      0.835306970000     0.045353545000     0.574941875000    -0.820744   
O358     O      0.850308200000     0.025628015000     0.882583750000    -0.625657   
O359     O      0.828991850000     0.061117695000     0.882219800000    -0.094488   
O360     O      0.609919010000     0.087727480000     0.620500865000    -0.769636   
O361     O      0.594617040000     0.092320555000     0.582864315000    -0.459622   
O362     O      0.606856785000     0.277783200000     0.647476900000    -0.414639   
O363     O      0.591554805000     0.282376230000     0.609840340000    -2.31788    
O364     O      0.746307550000     0.381778800000     0.842817875000    -0.238367   
O365     O      0.917137535000     0.498794735000     0.860242750000    -0.213448   
O366     O      0.779858320000     0.352603080000     0.845184850000    -0.364101   
O367     O      0.883586750000     0.027970435000     0.857875750000    -0.886236   
O368     O      0.869337170000     0.052163975000     0.632003980000    -0.742161   
O369     O      0.826065800000     0.039888820000     0.631755160000    -0.488122   
O370     O      0.840685200000     0.070840865000     0.823566250000    -0.490367   
O371     O      0.854792150000     0.032682125000     0.824212150000    -0.336348   
O372     O      0.576528015000     0.311850370000     0.841305550000    -1.01596    
O373     O      0.856098600000     0.286713850000     0.832021300000     8.9842     
O374     O      0.579196340000     0.281934250000     0.814724700000    -1.01791    
O375     O      0.772638950000     0.320491550000     0.908628200000     0.444606   
O376     O      0.733213065000     0.332126750000     0.885687770000     0.531151   
O377     O      0.737459375000     0.288394550000     0.898233650000     0.325049   
O378     O      0.690210090000     0.248951800000     0.856824220000    -0.271031   
O379     O      0.663336665000     0.232978580000     0.823904485000    -0.28411    
O380     O      0.853430250000     0.316629975000     0.858602150000     6.11187    
O381     O      0.707401365000     0.254664650000     0.814305780000    -0.348271   
O382     O      0.828671750000     0.261755600000     0.800837150000    -1.7515     
O383     O      0.795927850000     0.279823720000     0.774850450000    -0.907192   
O384     O      0.837627770000     0.304298000000     0.786683150000    -1.37127    
O385     O      0.595187985000     0.349401830000     0.810200350000    -0.228482   
O386     O      0.600697480000     0.352910900000     0.853081525000    -0.174521   
O387     O      0.634919940000     0.373542665000     0.826891100000    -0.271901   
O388     O      0.756199775000     0.295197250000     0.799558600000    -2.65893    
O389     O      0.675020920000     0.344276550000     0.832570730000    -0.027573   
O390     O      0.600780620000     0.050313115000     0.663326160000    -0.250966   
O391     O      0.602002280000     0.014994460000     0.646345185000    -0.350464   
O392     O      0.841133800000     0.046332975000     0.543052585000    -0.986085   
O393     O      0.849399475000     0.079874755000     0.562086215000    -0.328245   
O394     O      0.813637970000     0.116936600000     0.594221940000    -0.271959   
O395     O      0.814049570000     0.118061900000     0.554132660000    -0.299479   
O396     O      0.739614380000     0.013115595000     0.549692810000    -0.222627   
O397     O      0.748944075000     0.004366815000     0.588009695000    -0.326699   
O398     O      0.795111715000     0.007793035000     0.539446655000    -0.241284   
O399     O      0.796672165000     0.037816020000     0.513418150000    -0.276631   
O400     O      0.685953320000     0.485627200000     0.606107850000    -0.204405   
O401     O      0.689289720000     0.015082690000     0.579583885000    -0.29276    
O402     O      0.811992675000     0.259394230000     0.849501200000    -2.79777    
O403     O      0.852360950000     0.059393940000     0.853435500000    -0.310503   
O404     O      0.856771050000     0.257810550000     0.840936900000    -2.48212    
O405     O      0.807582600000     0.060977595000     0.861999800000    -0.404456   
O406     O      0.530876695000     0.009103730000     0.603534650000    -0.189027   
O407     O      0.910926970000     0.071726390000     0.625645370000    -0.324534   
O408     O      0.907190600000     0.070012710000     0.585736140000    -0.278266   
O409     O      0.547847750000     0.045678285000     0.600693055000    -0.327592   
Zn0      Zn     0.854781150000     0.797413020000     0.353741550000     11.6221    
Zn1      Zn     0.801684080000     0.802036435000     0.340145550000    -39.5627    
Zn2      Zn     0.820769280000     0.563419870000     0.341974050000     1.43201    
Zn3      Zn     0.863131950000     0.533491885000     0.363337650000     1.47173    
Zn4      Zn     0.822756170000     0.542749785000     0.093939965000     1.26074    
Zn5      Zn     0.877343415000     0.555933170000     0.109538385000     1.26107    
Zn6      Zn     0.614946360000     0.807540050000     0.147817350000     1.0354     
Zn7      Zn     0.593337015000     0.791723000000     0.099918740000     2.12308    
Zn8      Zn     0.592782675000     0.796690850000     0.329890300000    -0.940459   
Zn9      Zn     0.652107820000     0.798732150000     0.330501615000     1.44961    
Zn10     Zn     0.600891015000     0.575228385000     0.105282975000     1.28979    
Zn11     Zn     0.596796765000     0.523481950000     0.112348660000     1.29637    
H12      H      0.530766065000     0.860645385000     0.145051050000    -0.479552   
H13      H      0.579845735000     0.863411875000     0.140186520000     1.36086    
H14      H      0.610241265000     0.841763375000     0.166874035000    -0.301682   
H15      H      0.542412255000     0.815438200000     0.204279050000     0.055738   
H16      H      0.512204185000     0.836651750000     0.177154975000     0.247367   
H17      H      0.630654735000     0.760675580000     0.207407190000     0.063838   
H18      H      0.704077765000     0.749085650000     0.266602785000     0.031226   
H19      H      0.676751690000     0.728049770000     0.295070200000     0.03739    
H20      H      0.627934590000     0.733937050000     0.295878000000     0.002275   
H21      H      0.606220970000     0.762129550000     0.269134650000     0.073182   
H22      H      0.632003160000     0.861580350000     0.217879890000     0.065881   
H23      H      0.618834125000     0.903040400000     0.225383565000     0.008603   
H24      H      0.574705355000     0.912388200000     0.242623880000     0.056025   
H25      H      0.543569790000     0.880156070000     0.252405700000     0.02844    
H26      H      0.556335670000     0.838597800000     0.244776370000     0.073104   
H27      H      0.673765940000     0.814860550000     0.238332735000     0.064546   
H28      H      0.705966650000     0.833046850000     0.212239920000     0.008147   
H29      H      0.739927860000     0.808724050000     0.191912875000     0.034454   
H30      H      0.740786450000     0.765317000000     0.197278530000     0.025049   
H31      H      0.708416350000     0.746655465000     0.223179550000     0.053397   
H32      H      0.623077900000     0.825490830000     0.018889845000     0.038505   
H33      H      0.675005480000     0.741894600000     0.481697150000     0.043094   
H34      H      0.659181790000     0.812956900000     0.002776565000     0.034742   
H35      H      0.593534200000     0.762379550000     0.441473650000     0.062778   
H36      H      0.564414025000     0.887874930000     0.494924350000     0.088457   
H37      H      0.518067040000     0.883706870000     0.002160370000     0.016163   
H38      H      0.535452675000     0.863940650000     0.021754980000     0.037114   
H39      H      0.520091520000     0.852783550000     0.494614200000    -0.00296    
H40      H      0.572481095000     0.805563700000     0.405665400000     0.069125   
H41      H      0.568293385000     0.774144175000     0.407929630000     0.053771   
H42      H      0.539662395000     0.792669700000     0.402981550000     0.027201   
H43      H      0.544782480000     0.778335050000     0.445196550000     0.020575   
H44      H      0.540605345000     0.808412350000     0.442832770000     0.01469    
H45      H      0.573002875000     0.886365100000     0.451469630000     0.061056   
H46      H      0.599323150000     0.868104250000     0.439359650000     0.069032   
H47      H      0.571535855000     0.877176000000     0.421118000000     0.055772   
H48      H      0.564915895000     0.837409230000     0.429946780000     0.033447   
H49      H      0.540492705000     0.853217065000     0.446969775000     0.014218   
H50      H      0.701986500000     0.796474280000     0.007805290000     0.067956   
H51      H      0.720393985000     0.766379050000     0.031073330000     0.029009   
H52      H      0.697681800000     0.745242315000     0.018172860000     0.045535   
H53      H      0.685316580000     0.768146150000     0.038007320000     0.040736   
H54      H      0.624665565000     0.816004400000     0.265544175000     0.103052   
H55      H      0.603394200000     0.777295470000     0.242747275000     0.02719    
H56      H      0.649512960000     0.830232350000     0.249436450000     0.08642    
H57      H      0.622699125000     0.761434250000     0.221528650000     0.069418   
H58      H      0.648867475000     0.836202300000     0.200089050000     0.146345   
H59      H      0.643071620000     0.812349950000     0.179717570000     0.161114   
H60      H      0.676889880000     0.810012300000     0.219108865000     0.078479   
H61      H      0.663044470000     0.785246250000     0.203051520000     0.014264   
H62      H      0.576122195000     0.859215615000     0.210718825000     0.643648   
H63      H      0.608390780000     0.816810280000     0.154664010000     1.37845    
H64      H      0.639738140000     0.789999125000     0.286704800000     0.013532   
H65      H      0.673692800000     0.752853600000     0.227098250000     0.012253   
H66      H      0.615702680000     0.848257480000     0.230408265000     0.156841   
H67      H      0.609828400000     0.782575430000     0.190248115000    -0.215168   
H68      H      0.596353330000     0.847473100000     0.277184550000     0.159498   
H69      H      0.580631795000     0.865629200000     0.255013585000     0.123979   
H70      H      0.560650970000     0.846627175000     0.272825900000     0.072458   
H71      H      0.565529540000     0.829546125000     0.233272525000     0.031518   
H72      H      0.580680445000     0.811337235000     0.254614470000     0.016631   
H73      H      0.549437750000     0.806175200000     0.182662450000     0.116327   
H74      H      0.568647705000     0.782568930000     0.168753965000     0.163865   
H75      H      0.538219540000     0.776482850000     0.184020015000     0.068741   
H76      H      0.570797035000     0.765061320000     0.210923925000     0.024335   
H77      H      0.560966175000     0.792862030000     0.221943170000     0.036608   
H78      H      0.808831650000     0.807822850000     0.379715530000     6.56903    
H79      H      0.721154215000     0.787343530000     0.388205050000    -0.04149    
H80      H      0.700207550000     0.760041835000     0.298928915000     0.186623   
H81      H      0.827410450000     0.816047520000     0.277490080000     0.318455   
H82      H      0.622514050000     0.887109750000     0.325734300000     0.153658   
H83      H      0.773905750000     0.824092865000     0.283655550000    -0.193835   
H84      H      0.744284810000     0.830594120000     0.300649525000    -0.263986   
H85      H      0.716818290000     0.807829100000     0.270920250000     0.182652   
H86      H      0.625186160000     0.762985615000     0.327729150000    -0.019126   
H87      H      0.734279635000     0.832274885000     0.258108400000     0.11173    
H88      H      0.746542975000     0.802547500000     0.253710715000     0.205464   
H89      H      0.667195710000     0.852428975000     0.297334880000     0.053121   
H90      H      0.696118160000     0.834025550000     0.302184435000     0.044859   
H91      H      0.719487500000     0.867394650000     0.322519750000     0.090444   
H92      H      0.709578560000     0.874337100000     0.292618700000     0.059565   
H93      H      0.690733835000     0.886078120000     0.317233150000     0.085566   
H94      H      0.693842815000     0.576186400000     0.147065520000     0.056703   
H95      H      0.643544180000     0.502842850000     0.129638075000     0.112876   
H96      H      0.823372300000     0.633718850000     0.056727575000     0.153055   
H97      H      0.762349650000     0.638665185000     0.133964200000     0.061868   
H98      H      0.732461035000     0.622200260000     0.140621400000     0.058093   
H99      H      0.761002450000     0.621437275000     0.160345950000     0.058169   
H100     H      0.758024350000     0.584480040000     0.136267425000     0.02815    
H101     H      0.787837180000     0.600680100000     0.129931950000     0.034582   
H102     H      0.762753070000     0.618669500000     0.094387480000     0.062963   
H103     H      0.735345170000     0.600600700000     0.100390710000     0.055237   
H104     H      0.653595075000     0.598389475000     0.216513770000     0.06204    
H105     H      0.618980875000     0.590733590000     0.210780800000     0.073994   
H106     H      0.637721570000     0.575780010000     0.233456390000     0.064611   
H107     H      0.633514315000     0.550064260000     0.198213560000     0.049579   
H108     H      0.667750600000     0.558150365000     0.203007670000     0.030396   
H109     H      0.663515200000     0.590089845000     0.173509225000     0.057959   
H110     H      0.629812200000     0.583066755000     0.167427900000     0.089136   
H111     H      0.739190750000     0.989087550000     0.084349030000     0.171379   
H112     H      0.800635665000     0.524970335000     0.001289825000     0.164678   
H113     H      0.692150235000     0.501836435000     0.067638790000     0.167077   
H114     H      0.934032470000     0.958237470000     0.052340845000     0.048599   
H115     H      0.905567600000     0.944532275000     0.065464890000     0.039401   
H116     H      0.903206700000     0.973994750000     0.054209610000     0.048918   
H117     H      0.933428850000     0.956555130000     0.098503485000     0.031778   
H118     H      0.905882250000     0.975432100000     0.098160965000     0.027819   
H119     H      0.950427000000     0.615160400000     0.184845640000     0.066476   
H120     H      0.975372050000     0.620554870000     0.162886725000     0.06029    
H121     H      0.943012500000     0.634748920000     0.161667230000     0.051325   
H122     H      0.936266720000     0.605630830000     0.133330315000     0.054736   
H123     H      0.924206600000     0.591599210000     0.159844680000     0.067509   
H124     H      0.528311430000     0.584477580000     0.090226895000     0.081588   
H125     H      0.518060565000     0.610546700000     0.105680405000     0.072682   
H126     H      0.552786825000     0.605978110000     0.099757535000     0.065684   
H127     H      0.540503445000     0.599483215000     0.141388850000     0.045672   
H128     H      0.556097985000     0.574576260000     0.128860175000     0.001847   
H129     H      0.508293510000     0.967182070000     0.113068335000     0.111766   
H130     H      0.975236700000     0.955962720000     0.118612800000     0.073953   
H131     H      0.500079630000     0.937292300000     0.104935965000     0.087395   
H132     H      0.969905250000     0.950114700000     0.073642240000     0.023623   
H133     H      0.501238585000     0.963904150000     0.070271985000     0.050667   
H134     H      0.922397900000     0.544800930000     0.052114215000     0.08311    
H135     H      0.914619775000     0.515808400000     0.040885295000     0.060751   
H136     H      0.887950350000     0.536250295000     0.047444515000     0.046945   
H137     H      0.893297585000     0.505029930000     0.077343880000     0.007754   
H138     H      0.895910050000     0.531818555000     0.090425515000    -0.092089   
C139     C      0.622800575000     0.818549600000     0.265320865000     0.061482   
C140     C      0.602142630000     0.779804080000     0.173161950000     0.664252   
C141     C      0.571722335000     0.852690300000     0.154001475000    -4.94829    
C142     C      0.588903740000     0.840376200000     0.169074120000     7.6295     
C143     C      0.578500800000     0.826098380000     0.186752230000     1.12387    
C144     C      0.550747895000     0.825405550000     0.189987465000    -0.005355   
C145     C      0.533596125000     0.837623350000     0.174828425000    -0.858299   
C146     C      0.544065420000     0.851167320000     0.156760035000     2.08455    
C147     C      0.602664090000     0.822452875000     0.225308535000    -0.100093   
C148     C      0.617718525000     0.809115915000     0.241564550000     0.139478   
C149     C      0.628214050000     0.786922600000     0.234871565000    -0.015962   
C150     C      0.622735225000     0.777831500000     0.212412760000    -0.205585   
C151     C      0.606895590000     0.790363430000     0.196496600000     0.100074   
C152     C      0.596614735000     0.812869800000     0.202821640000    -1.35186    
C153     C      0.670815470000     0.767802120000     0.250562900000    -0.045154   
C154     C      0.682714880000     0.752158200000     0.266683050000     0.056739   
C155     C      0.667336750000     0.740212915000     0.283000800000     0.087119   
C156     C      0.639841080000     0.743714080000     0.283623370000     0.1884     
C157     C      0.627663950000     0.759637175000     0.268368550000    -0.131448   
C158     C      0.642809375000     0.771791900000     0.251758365000     0.112241   
C159     C      0.595124470000     0.847194820000     0.230915130000     0.206983   
C160     C      0.612711170000     0.865497700000     0.225511180000    -0.287013   
C161     C      0.605284730000     0.888949335000     0.229658290000     0.06934    
C162     C      0.580373445000     0.894218830000     0.239333720000    -0.105972   
C163     C      0.562841520000     0.876041800000     0.244882775000    -0.023451   
C164     C      0.570128785000     0.852562550000     0.240630050000    -0.214742   
C165     C      0.688310265000     0.779152250000     0.232914400000     0.08129    
C166     C      0.687828450000     0.803635050000     0.229380665000    -0.182201   
C167     C      0.706347765000     0.814162150000     0.214614450000     0.013855   
C168     C      0.725443465000     0.800415900000     0.203055815000    -0.070205   
C169     C      0.725900575000     0.776057720000     0.206059010000     0.006161   
C170     C      0.707449690000     0.765491300000     0.220830000000    -0.084661   
C171     C      0.627386125000     0.733008070000     0.462006500000     0.262834   
C172     C      0.602118215000     0.866450050000     0.022384105000     0.261028   
C173     C      0.572631405000     0.838153350000     0.468100200000    -0.025934   
C174     C      0.592079110000     0.847773820000     0.006789385000    -0.070785   
C175     C      0.662087620000     0.757229030000     0.481319750000    -0.019039   
C176     C      0.670130640000     0.777918100000     0.492960065000     0.016776   
C177     C      0.652533860000     0.797048570000     0.493732630000    -0.030437   
C178     C      0.627219335000     0.795882015000     0.482341020000    -0.015643   
C179     C      0.620901385000     0.776260970000     0.468088565000     0.05504    
C180     C      0.608025535000     0.813824600000     0.484861670000    -0.007965   
C181     C      0.587088085000     0.816441650000     0.467950500000    -0.012724   
C182     C      0.581331350000     0.796960325000     0.452546800000     0.021838   
C183     C      0.598211975000     0.777130785000     0.453114250000    -0.075003   
C184     C      0.608834170000     0.828523130000     0.004702210000    -0.007753   
C185     C      0.572940200000     0.852322070000     0.488882600000     0.056184   
C186     C      0.637195810000     0.756033125000     0.469722100000    -0.078117   
C187     C      0.531038855000     0.867834420000     0.002928735000    -0.000223   
C188     C      0.555104455000     0.794177700000     0.438969670000    -0.061547   
C189     C      0.559248925000     0.791540830000     0.412292330000    -0.14325    
C190     C      0.562135270000     0.849190100000     0.445379150000    -0.036377   
C191     C      0.577465765000     0.871561380000     0.439134500000    -0.151271   
C192     C      0.699857190000     0.763964770000     0.023831725000    -0.087553   
C193     C      0.602602675000     0.997572150000     0.109329505000     0.022477   
C194     C      0.598884130000     0.827858030000     0.121252250000     0.139936   
C195     C      0.601992130000     0.971307350000     0.111156290000     0.044013   
C196     C      0.599430970000     0.854111600000     0.119399125000    -0.13254    
C197     C      0.601499280000     0.949454950000     0.112679885000     0.005711   
C198     C      0.599895290000     0.875973165000     0.117855745000    -0.109857   
C199     C      0.600926510000     0.923601150000     0.114496985000    -0.003155   
C200     C      0.600451320000     0.901821375000     0.116029220000     0.013683   
C201     C      0.854392300000     0.553975740000     0.062014995000     0.439961   
C202     C      0.840588630000     0.544047920000     0.393837480000     0.253511   
C203     C      0.852256120000     0.552439405000     0.035989345000     0.997419   
C204     C      0.842724770000     0.545584255000     0.419863135000    -0.082077   
C205     C      0.850477900000     0.551160465000     0.014324305000    -0.344142   
C206     C      0.844502950000     0.546863150000     0.441528170000     0.07162    
C207     C      0.848379550000     0.549651295000     0.488758775000     0.13896    
C208     C      0.846601365000     0.548372365000     0.467093700000    -0.096581   
C209     C      0.599788860000     0.742880670000     0.123337715000    -0.391988   
C210     C      0.600139850000     0.721252500000     0.120274170000     0.225659   
C211     C      0.600911565000     0.674305200000     0.113658940000     0.046493   
C212     C      0.601330645000     0.648839650000     0.110066475000    -0.015954   
C213     C      0.601681545000     0.627217200000     0.107003755000     0.009322   
C214     C      0.599382675000     0.768712650000     0.127029450000     1.16006    
C215     C      0.602091140000     0.601391145000     0.103311775000     0.075048   
C216     C      0.600555420000     0.695786790000     0.116682775000    -0.104372   
C217     C      0.656909170000     0.779589300000     0.251919650000    -0.102807   
C218     C      0.610211410000     0.829359175000     0.232229190000    -0.419538   
C219     C      0.602061840000     0.791044385000     0.206730815000     0.312738   
C220     C      0.632226810000     0.818014250000     0.247502820000    -0.117896   
C221     C      0.616849295000     0.779514370000     0.227417230000    -0.055574   
C222     C      0.640829450000     0.817971600000     0.198477490000    -0.582945   
C223     C      0.610875120000     0.817608980000     0.206588670000     1.6322     
C224     C      0.641592740000     0.794473320000     0.235567285000    -0.019972   
C225     C      0.657885610000     0.801234500000     0.213699200000     0.062113   
C226     C      0.577639500000     0.848811850000     0.194674800000    -1.98415    
C227     C      0.594829670000     0.827452850000     0.165032650000    -7.41071    
C228     C      0.594991855000     0.830853750000     0.189360185000    -0.484325   
C229     C      0.649242775000     0.777392400000     0.275209575000     0.094212   
C230     C      0.667387575000     0.757885450000     0.244655950000     0.058231   
C231     C      0.582888250000     0.828320475000     0.245385915000     0.118772   
C232     C      0.580086180000     0.848254900000     0.263730250000    -0.185161   
C233     C      0.571843850000     0.784258050000     0.207339690000     0.006247   
C234     C      0.556356960000     0.787714150000     0.184200125000    -0.166478   
C235     C      0.839040700000     0.948956650000     0.352265600000    -0.065743   
C236     C      0.771823200000     0.875264750000     0.344829915000     0.188741   
C237     C      0.891628175000     0.505311015000     0.358052800000     0.407297   
C238     C      0.791666330000     0.894381585000     0.346942300000    -0.189132   
C239     C      0.871796280000     0.986179950000     0.355912180000    -0.184813   
C240     C      0.807031650000     0.911215950000     0.348645400000    -0.028799   
C241     C      0.856445520000     0.969334275000     0.354220450000     0.061996   
C242     C      0.824447500000     0.931582900000     0.350614580000    -0.064445   
C243     C      0.847703750000     0.546370310000     0.143393400000     0.42414    
C244     C      0.847807525000     0.551437780000     0.312375785000     0.269035   
C245     C      0.847714350000     0.547149365000     0.169560225000    -0.139606   
C246     C      0.847770400000     0.550643020000     0.286208870000    -0.09249    
C247     C      0.847718600000     0.547799265000     0.191318800000     0.072196   
C248     C      0.847745300000     0.549987180000     0.264450200000     0.038512   
C249     C      0.847720750000     0.548561535000     0.217002660000    -0.030504   
C250     C      0.847729115000     0.549212780000     0.238766385000    -0.011629   
C251     C      0.590528800000     0.798186750000     0.327853700000     3.44529    
C252     C      0.633203685000     0.822730300000     0.330198375000     0.233991   
C253     C      0.770463200000     0.798109830000     0.320473650000     10.6292    
C254     C      0.661373975000     0.823115765000     0.331860425000    -0.526545   
C255     C      0.756546550000     0.802935000000     0.341413750000    -7.60748    
C256     C      0.675762450000     0.801912950000     0.333866565000     0.307517   
C257     C      0.727919750000     0.803182100000     0.340218125000     2.60744    
C258     C      0.704103485000     0.802789050000     0.337825000000    -1.43669    
C259     C      0.842058035000     0.801489385000     0.344209250000    -47.5184    
C260     C      0.770345900000     0.806559600000     0.362869700000     14.3812    
C261     C      0.662752135000     0.780150200000     0.331469120000    -1.0356     
C262     C      0.798180520000     0.805344880000     0.363128065000    -29.3402    
C263     C      0.635086950000     0.779730150000     0.328753550000     0.261274   
C264     C      0.753916620000     0.817378135000     0.288712800000     0.886539   
C265     C      0.736800775000     0.814830850000     0.266458275000    -0.442833   
C266     C      0.684266750000     0.848957420000     0.309580800000     0.031331   
C267     C      0.702133090000     0.870572950000     0.310576500000    -0.176367   
C268     C      0.812565250000     0.800513030000     0.342454525000     91.5434    
C269     C      0.619959080000     0.800505200000     0.328605500000    -1.32521    
C270     C      0.798455900000     0.795321050000     0.320999025000    -15.5152    
C271     C      0.765059770000     0.541585880000     0.070403950000    -0.081917   
C272     C      0.757012100000     0.559034370000     0.086802380000    -0.023539   
C273     C      0.734102710000     0.554605190000     0.101309180000     0.013516   
C274     C      0.614002215000     0.533273700000     0.154285460000     0.239117   
C275     C      0.642798050000     0.536149290000     0.148837210000    -0.139295   
C276     C      0.654149575000     0.519024035000     0.133730320000     0.01429    
C277     C      0.677480670000     0.523450530000     0.121434270000    -0.072107   
C278     C      0.691381365000     0.544534455000     0.125968550000     0.063988   
C279     C      0.682283600000     0.560391255000     0.143270910000    -0.112699   
C280     C      0.657973485000     0.556688505000     0.154828000000     0.093443   
C281     C      0.769932600000     0.581141480000     0.087866165000     0.030765   
C282     C      0.793766700000     0.584299440000     0.074911650000    -0.12176    
C283     C      0.787320800000     0.545562930000     0.056026705000    -0.055708   
C284     C      0.714818015000     0.550260960000     0.112886375000    -0.027066   
C285     C      0.803799450000     0.565548150000     0.060591620000    -0.033162   
C286     C      0.832717270000     0.564578665000     0.053903485000     0.341412   
C287     C      0.807610000000     0.607400825000     0.075400770000     0.301566   
C288     C      0.757469030000     0.601396865000     0.101953330000    -0.105221   
C289     C      0.765718150000     0.600762660000     0.128124350000    -0.02016    
C290     C      0.754642070000     0.622115440000     0.141542850000    -0.158037   
C291     C      0.649152665000     0.575151190000     0.172843290000    -0.129491   
C292     C      0.647776840000     0.564971930000     0.197758600000    -0.006324   
C293     C      0.638977335000     0.583701140000     0.215700200000    -0.164901   
C294     C      0.750237200000     0.519003620000     0.068436040000     0.299668   
C295     C      0.793098700000     0.528953325000     0.036068150000     0.329366   
C296     C      0.685022620000     0.506764400000     0.102316825000     0.242618   
C297     C      0.831939370000     0.648710850000     0.352141300000     0.065009   
C298     C      0.832414300000     0.670077310000     0.350795350000    -0.120545   
C299     C      0.834100485000     0.745941450000     0.346016600000     0.815276   
C300     C      0.830253200000     0.572846720000     0.356920100000    -0.694658   
C301     C      0.830867680000     0.600492885000     0.355178625000     0.207052   
C302     C      0.833486000000     0.718295290000     0.347758050000    -0.352723   
C303     C      0.831342430000     0.621853410000     0.353833100000    -0.125378   
C304     C      0.833011270000     0.696934775000     0.349103570000     0.144508   
C305     C      0.961138800000     0.577156470000     0.145698635000     0.005043   
C306     C      0.924141700000     0.970909450000     0.088184745000    -0.056463   
C307     C      0.916364300000     0.961430100000     0.063582350000    -0.140659   
C308     C      0.942131350000     0.597870080000     0.150413990000    -0.046804   
C309     C      0.953671700000     0.618146175000     0.165815000000    -0.145692   
C310     C      0.537419915000     0.584968240000     0.128214400000    -0.029141   
C311     C      0.533906280000     0.597082930000     0.104474485000    -0.172652   
C312     C      0.983301000000     0.963558735000     0.081643695000    -0.030873   
C313     C      0.992175815000     0.955561300000     0.106115525000    -0.210336   
C314     C      0.906482430000     0.520538450000     0.078299575000     0.020047   
C315     C      0.907996550000     0.530038080000     0.053210060000    -0.156304   
C316     C      0.920606750000     0.566585960000     0.105537660000     0.177575   
C317     C      0.527795135000     0.531792280000     0.102486500000     0.294649   
C318     C      0.978862750000     0.572311590000     0.164345600000     0.01466    
C319     C      0.505942345000     0.571575435000     0.159127680000     0.026561   
C320     C      0.513506355000     0.570221670000     0.135309680000     0.014407   
C321     C      0.994297830000     0.560588255000     0.118844360000    -0.018133   
C322     C      0.967041650000     0.566290945000     0.122716635000     0.022806   
C323     C      0.500697195000     0.541825970000     0.102778690000    -0.047367   
C324     C      0.980111865000     0.528450380000     0.091623760000     0.004107   
C325     C      0.953067000000     0.534237215000     0.094562895000     0.021631   
C326     C      0.947308125000     0.556324565000     0.106389480000    -0.057832   
C327     C      0.986104650000     0.507352770000     0.079447030000     0.021603   
C328     C      0.970380500000     0.987786350000     0.083071210000    -0.014416   
C329     C      0.943070150000     0.991790900000     0.087002820000     0.001687   
C330     C      0.933967000000     0.515729850000     0.088200090000    -0.032535   
S331     S      0.615166605000     0.849931120000     0.330125780000     0.288355   
S332     S      0.753318650000     0.812796475000     0.389513225000    -3.98048    
S333     S      0.680691570000     0.753192750000     0.331980600000     0.699134   
S334     S      0.814882050000     0.784554750000     0.295156950000     4.0499     
I335     I      0.964516670000     0.568937080000     0.199668140000    -0.114374   
I336     I      0.534735205000     0.574763245000     0.186670275000    -0.088263   
I337     I      0.500343560000     0.509724780000     0.044916140000    -0.092768   
N338     N      0.555486025000     0.872130900000     0.490391375000    -0.165156   
N339     N      0.695750370000     0.779484035000     0.004079700000    -0.133643   
N340     N      0.565199055000     0.854246600000     0.175001160000     0.049238   
N341     N      0.576390580000     0.841845570000     0.156194760000     1.13249    
N342     N      0.653308930000     0.755378400000     0.281173170000    -0.198384   
N343     N      0.664500460000     0.742977380000     0.262366800000    -0.145188   
O344     O      0.598295070000     0.757215100000     0.170949965000    -0.306822   
O345     O      0.647158500000     0.819491050000     0.273006900000    -0.222524   
O346     O      0.602840630000     0.825908300000     0.277804225000    -0.243307   
O347     O      0.602977165000     0.793401600000     0.155190020000    -0.572352   
O348     O      0.644441320000     0.717909550000     0.453463225000    -0.213662   
O349     O      0.602229415000     0.728087085000     0.465179850000    -0.222679   
O350     O      0.627719100000     0.870379150000     0.021338045000    -0.2111     
O351     O      0.585507200000     0.880556675000     0.033054650000    -0.210852   
O352     O      0.579981545000     0.509323775000     0.105871745000    -0.661061   
O353     O      0.625755220000     0.508813145000     0.111216850000    -0.433736   
O354     O      0.601118565000     0.814559600000     0.101864725000    -0.668017   
O355     O      0.596217590000     0.818156500000     0.142269685000     0.21547    
O356     O      0.875354825000     0.563948085000     0.071959615000    -0.364173   
O357     O      0.835306970000     0.545353545000     0.074941875000    -0.820744   
O358     O      0.850308200000     0.525628015000     0.382583750000    -0.625657   
O359     O      0.828991850000     0.561117695000     0.382219800000    -0.094488   
O360     O      0.609919010000     0.587727480000     0.120500865000    -0.769636   
O361     O      0.594617040000     0.592320555000     0.082864315000    -0.459622   
O362     O      0.606856785000     0.777783200000     0.147476900000    -0.414639   
O363     O      0.591554805000     0.782376230000     0.109840340000    -2.31788    
O364     O      0.746307550000     0.881778800000     0.342817875000    -0.238367   
O365     O      0.917137535000     0.998794735000     0.360242750000    -0.213448   
O366     O      0.779858320000     0.852603080000     0.345184850000    -0.364101   
O367     O      0.883586750000     0.527970435000     0.357875750000    -0.886236   
O368     O      0.869337170000     0.552163975000     0.132003980000    -0.742161   
O369     O      0.826065800000     0.539888820000     0.131755160000    -0.488122   
O370     O      0.840685200000     0.570840865000     0.323566250000    -0.490367   
O371     O      0.854792150000     0.532682125000     0.324212150000    -0.336348   
O372     O      0.576528015000     0.811850370000     0.341305550000    -1.01596    
O373     O      0.856098600000     0.786713850000     0.332021300000     8.9842     
O374     O      0.579196340000     0.781934250000     0.314724700000    -1.01791    
O375     O      0.772638950000     0.820491550000     0.408628200000     0.444606   
O376     O      0.733213065000     0.832126750000     0.385687770000     0.531151   
O377     O      0.737459375000     0.788394550000     0.398233650000     0.325049   
O378     O      0.690210090000     0.748951800000     0.356824220000    -0.271031   
O379     O      0.663336665000     0.732978580000     0.323904485000    -0.28411    
O380     O      0.853430250000     0.816629975000     0.358602150000     6.11187    
O381     O      0.707401365000     0.754664650000     0.314305780000    -0.348271   
O382     O      0.828671750000     0.761755600000     0.300837150000    -1.7515     
O383     O      0.795927850000     0.779823720000     0.274850450000    -0.907192   
O384     O      0.837627770000     0.804298000000     0.286683150000    -1.37127    
O385     O      0.595187985000     0.849401830000     0.310200350000    -0.228482   
O386     O      0.600697480000     0.852910900000     0.353081525000    -0.174521   
O387     O      0.634919940000     0.873542665000     0.326891100000    -0.271901   
O388     O      0.756199775000     0.795197250000     0.299558600000    -2.65893    
O389     O      0.675020920000     0.844276550000     0.332570730000    -0.027573   
O390     O      0.600780620000     0.550313115000     0.163326160000    -0.250966   
O391     O      0.602002280000     0.514994460000     0.146345185000    -0.350464   
O392     O      0.841133800000     0.546332975000     0.043052585000    -0.986085   
O393     O      0.849399475000     0.579874755000     0.062086215000    -0.328245   
O394     O      0.813637970000     0.616936600000     0.094221940000    -0.271959   
O395     O      0.814049570000     0.618061900000     0.054132660000    -0.299479   
O396     O      0.739614380000     0.513115595000     0.049692810000    -0.222627   
O397     O      0.748944075000     0.504366815000     0.088009695000    -0.326699   
O398     O      0.795111715000     0.507793035000     0.039446655000    -0.241284   
O399     O      0.796672165000     0.537816020000     0.013418150000    -0.276631   
O400     O      0.685953320000     0.985627200000     0.106107850000    -0.204405   
O401     O      0.689289720000     0.515082690000     0.079583885000    -0.29276    
O402     O      0.811992675000     0.759394230000     0.349501200000    -2.79777    
O403     O      0.852360950000     0.559393940000     0.353435500000    -0.310503   
O404     O      0.856771050000     0.757810550000     0.340936900000    -2.48212    
O405     O      0.807582600000     0.560977595000     0.361999800000    -0.404456   
O406     O      0.530876695000     0.509103730000     0.103534650000    -0.189027   
O407     O      0.910926970000     0.571726390000     0.125645370000    -0.324534   
O408     O      0.907190600000     0.570012710000     0.085736140000    -0.278266   
O409     O      0.547847750000     0.545678285000     0.100693055000    -0.327592   
Zn0      Zn     0.854781150000     0.797413020000     0.853741550000     11.6221    
Zn1      Zn     0.801684080000     0.802036435000     0.840145550000    -39.5627    
Zn2      Zn     0.820769280000     0.563419870000     0.841974050000     1.43201    
Zn3      Zn     0.863131950000     0.533491885000     0.863337650000     1.47173    
Zn4      Zn     0.822756170000     0.542749785000     0.593939965000     1.26074    
Zn5      Zn     0.877343415000     0.555933170000     0.609538385000     1.26107    
Zn6      Zn     0.614946360000     0.807540050000     0.647817350000     1.0354     
Zn7      Zn     0.593337015000     0.791723000000     0.599918740000     2.12308    
Zn8      Zn     0.592782675000     0.796690850000     0.829890300000    -0.940459   
Zn9      Zn     0.652107820000     0.798732150000     0.830501615000     1.44961    
Zn10     Zn     0.600891015000     0.575228385000     0.605282975000     1.28979    
Zn11     Zn     0.596796765000     0.523481950000     0.612348660000     1.29637    
H12      H      0.530766065000     0.860645385000     0.645051050000    -0.479552   
H13      H      0.579845735000     0.863411875000     0.640186520000     1.36086    
H14      H      0.610241265000     0.841763375000     0.666874035000    -0.301682   
H15      H      0.542412255000     0.815438200000     0.704279050000     0.055738   
H16      H      0.512204185000     0.836651750000     0.677154975000     0.247367   
H17      H      0.630654735000     0.760675580000     0.707407190000     0.063838   
H18      H      0.704077765000     0.749085650000     0.766602785000     0.031226   
H19      H      0.676751690000     0.728049770000     0.795070200000     0.03739    
H20      H      0.627934590000     0.733937050000     0.795878000000     0.002275   
H21      H      0.606220970000     0.762129550000     0.769134650000     0.073182   
H22      H      0.632003160000     0.861580350000     0.717879890000     0.065881   
H23      H      0.618834125000     0.903040400000     0.725383565000     0.008603   
H24      H      0.574705355000     0.912388200000     0.742623880000     0.056025   
H25      H      0.543569790000     0.880156070000     0.752405700000     0.02844    
H26      H      0.556335670000     0.838597800000     0.744776370000     0.073104   
H27      H      0.673765940000     0.814860550000     0.738332735000     0.064546   
H28      H      0.705966650000     0.833046850000     0.712239920000     0.008147   
H29      H      0.739927860000     0.808724050000     0.691912875000     0.034454   
H30      H      0.740786450000     0.765317000000     0.697278530000     0.025049   
H31      H      0.708416350000     0.746655465000     0.723179550000     0.053397   
H32      H      0.623077900000     0.825490830000     0.518889845000     0.038505   
H33      H      0.675005480000     0.741894600000     0.981697150000     0.043094   
H34      H      0.659181790000     0.812956900000     0.502776565000     0.034742   
H35      H      0.593534200000     0.762379550000     0.941473650000     0.062778   
H36      H      0.564414025000     0.887874930000     0.994924350000     0.088457   
H37      H      0.518067040000     0.883706870000     0.502160370000     0.016163   
H38      H      0.535452675000     0.863940650000     0.521754980000     0.037114   
H39      H      0.520091520000     0.852783550000     0.994614200000    -0.00296    
H40      H      0.572481095000     0.805563700000     0.905665400000     0.069125   
H41      H      0.568293385000     0.774144175000     0.907929630000     0.053771   
H42      H      0.539662395000     0.792669700000     0.902981550000     0.027201   
H43      H      0.544782480000     0.778335050000     0.945196550000     0.020575   
H44      H      0.540605345000     0.808412350000     0.942832770000     0.01469    
H45      H      0.573002875000     0.886365100000     0.951469630000     0.061056   
H46      H      0.599323150000     0.868104250000     0.939359650000     0.069032   
H47      H      0.571535855000     0.877176000000     0.921118000000     0.055772   
H48      H      0.564915895000     0.837409230000     0.929946780000     0.033447   
H49      H      0.540492705000     0.853217065000     0.946969775000     0.014218   
H50      H      0.701986500000     0.796474280000     0.507805290000     0.067956   
H51      H      0.720393985000     0.766379050000     0.531073330000     0.029009   
H52      H      0.697681800000     0.745242315000     0.518172860000     0.045535   
H53      H      0.685316580000     0.768146150000     0.538007320000     0.040736   
H54      H      0.624665565000     0.816004400000     0.765544175000     0.103052   
H55      H      0.603394200000     0.777295470000     0.742747275000     0.02719    
H56      H      0.649512960000     0.830232350000     0.749436450000     0.08642    
H57      H      0.622699125000     0.761434250000     0.721528650000     0.069418   
H58      H      0.648867475000     0.836202300000     0.700089050000     0.146345   
H59      H      0.643071620000     0.812349950000     0.679717570000     0.161114   
H60      H      0.676889880000     0.810012300000     0.719108865000     0.078479   
H61      H      0.663044470000     0.785246250000     0.703051520000     0.014264   
H62      H      0.576122195000     0.859215615000     0.710718825000     0.643648   
H63      H      0.608390780000     0.816810280000     0.654664010000     1.37845    
H64      H      0.639738140000     0.789999125000     0.786704800000     0.013532   
H65      H      0.673692800000     0.752853600000     0.727098250000     0.012253   
H66      H      0.615702680000     0.848257480000     0.730408265000     0.156841   
H67      H      0.609828400000     0.782575430000     0.690248115000    -0.215168   
H68      H      0.596353330000     0.847473100000     0.777184550000     0.159498   
H69      H      0.580631795000     0.865629200000     0.755013585000     0.123979   
H70      H      0.560650970000     0.846627175000     0.772825900000     0.072458   
H71      H      0.565529540000     0.829546125000     0.733272525000     0.031518   
H72      H      0.580680445000     0.811337235000     0.754614470000     0.016631   
H73      H      0.549437750000     0.806175200000     0.682662450000     0.116327   
H74      H      0.568647705000     0.782568930000     0.668753965000     0.163865   
H75      H      0.538219540000     0.776482850000     0.684020015000     0.068741   
H76      H      0.570797035000     0.765061320000     0.710923925000     0.024335   
H77      H      0.560966175000     0.792862030000     0.721943170000     0.036608   
H78      H      0.808831650000     0.807822850000     0.879715530000     6.56903    
H79      H      0.721154215000     0.787343530000     0.888205050000    -0.04149    
H80      H      0.700207550000     0.760041835000     0.798928915000     0.186623   
H81      H      0.827410450000     0.816047520000     0.777490080000     0.318455   
H82      H      0.622514050000     0.887109750000     0.825734300000     0.153658   
H83      H      0.773905750000     0.824092865000     0.783655550000    -0.193835   
H84      H      0.744284810000     0.830594120000     0.800649525000    -0.263986   
H85      H      0.716818290000     0.807829100000     0.770920250000     0.182652   
H86      H      0.625186160000     0.762985615000     0.827729150000    -0.019126   
H87      H      0.734279635000     0.832274885000     0.758108400000     0.11173    
H88      H      0.746542975000     0.802547500000     0.753710715000     0.205464   
H89      H      0.667195710000     0.852428975000     0.797334880000     0.053121   
H90      H      0.696118160000     0.834025550000     0.802184435000     0.044859   
H91      H      0.719487500000     0.867394650000     0.822519750000     0.090444   
H92      H      0.709578560000     0.874337100000     0.792618700000     0.059565   
H93      H      0.690733835000     0.886078120000     0.817233150000     0.085566   
H94      H      0.693842815000     0.576186400000     0.647065520000     0.056703   
H95      H      0.643544180000     0.502842850000     0.629638075000     0.112876   
H96      H      0.823372300000     0.633718850000     0.556727575000     0.153055   
H97      H      0.762349650000     0.638665185000     0.633964200000     0.061868   
H98      H      0.732461035000     0.622200260000     0.640621400000     0.058093   
H99      H      0.761002450000     0.621437275000     0.660345950000     0.058169   
H100     H      0.758024350000     0.584480040000     0.636267425000     0.02815    
H101     H      0.787837180000     0.600680100000     0.629931950000     0.034582   
H102     H      0.762753070000     0.618669500000     0.594387480000     0.062963   
H103     H      0.735345170000     0.600600700000     0.600390710000     0.055237   
H104     H      0.653595075000     0.598389475000     0.716513770000     0.06204    
H105     H      0.618980875000     0.590733590000     0.710780800000     0.073994   
H106     H      0.637721570000     0.575780010000     0.733456390000     0.064611   
H107     H      0.633514315000     0.550064260000     0.698213560000     0.049579   
H108     H      0.667750600000     0.558150365000     0.703007670000     0.030396   
H109     H      0.663515200000     0.590089845000     0.673509225000     0.057959   
H110     H      0.629812200000     0.583066755000     0.667427900000     0.089136   
H111     H      0.739190750000     0.989087550000     0.584349030000     0.171379   
H112     H      0.800635665000     0.524970335000     0.501289825000     0.164678   
H113     H      0.692150235000     0.501836435000     0.567638790000     0.167077   
H114     H      0.934032470000     0.958237470000     0.552340845000     0.048599   
H115     H      0.905567600000     0.944532275000     0.565464890000     0.039401   
H116     H      0.903206700000     0.973994750000     0.554209610000     0.048918   
H117     H      0.933428850000     0.956555130000     0.598503485000     0.031778   
H118     H      0.905882250000     0.975432100000     0.598160965000     0.027819   
H119     H      0.950427000000     0.615160400000     0.684845640000     0.066476   
H120     H      0.975372050000     0.620554870000     0.662886725000     0.06029    
H121     H      0.943012500000     0.634748920000     0.661667230000     0.051325   
H122     H      0.936266720000     0.605630830000     0.633330315000     0.054736   
H123     H      0.924206600000     0.591599210000     0.659844680000     0.067509   
H124     H      0.528311430000     0.584477580000     0.590226895000     0.081588   
H125     H      0.518060565000     0.610546700000     0.605680405000     0.072682   
H126     H      0.552786825000     0.605978110000     0.599757535000     0.065684   
H127     H      0.540503445000     0.599483215000     0.641388850000     0.045672   
H128     H      0.556097985000     0.574576260000     0.628860175000     0.001847   
H129     H      0.508293510000     0.967182070000     0.613068335000     0.111766   
H130     H      0.975236700000     0.955962720000     0.618612800000     0.073953   
H131     H      0.500079630000     0.937292300000     0.604935965000     0.087395   
H132     H      0.969905250000     0.950114700000     0.573642240000     0.023623   
H133     H      0.501238585000     0.963904150000     0.570271985000     0.050667   
H134     H      0.922397900000     0.544800930000     0.552114215000     0.08311    
H135     H      0.914619775000     0.515808400000     0.540885295000     0.060751   
H136     H      0.887950350000     0.536250295000     0.547444515000     0.046945   
H137     H      0.893297585000     0.505029930000     0.577343880000     0.007754   
H138     H      0.895910050000     0.531818555000     0.590425515000    -0.092089   
C139     C      0.622800575000     0.818549600000     0.765320865000     0.061482   
C140     C      0.602142630000     0.779804080000     0.673161950000     0.664252   
C141     C      0.571722335000     0.852690300000     0.654001475000    -4.94829    
C142     C      0.588903740000     0.840376200000     0.669074120000     7.6295     
C143     C      0.578500800000     0.826098380000     0.686752230000     1.12387    
C144     C      0.550747895000     0.825405550000     0.689987465000    -0.005355   
C145     C      0.533596125000     0.837623350000     0.674828425000    -0.858299   
C146     C      0.544065420000     0.851167320000     0.656760035000     2.08455    
C147     C      0.602664090000     0.822452875000     0.725308535000    -0.100093   
C148     C      0.617718525000     0.809115915000     0.741564550000     0.139478   
C149     C      0.628214050000     0.786922600000     0.734871565000    -0.015962   
C150     C      0.622735225000     0.777831500000     0.712412760000    -0.205585   
C151     C      0.606895590000     0.790363430000     0.696496600000     0.100074   
C152     C      0.596614735000     0.812869800000     0.702821640000    -1.35186    
C153     C      0.670815470000     0.767802120000     0.750562900000    -0.045154   
C154     C      0.682714880000     0.752158200000     0.766683050000     0.056739   
C155     C      0.667336750000     0.740212915000     0.783000800000     0.087119   
C156     C      0.639841080000     0.743714080000     0.783623370000     0.1884     
C157     C      0.627663950000     0.759637175000     0.768368550000    -0.131448   
C158     C      0.642809375000     0.771791900000     0.751758365000     0.112241   
C159     C      0.595124470000     0.847194820000     0.730915130000     0.206983   
C160     C      0.612711170000     0.865497700000     0.725511180000    -0.287013   
C161     C      0.605284730000     0.888949335000     0.729658290000     0.06934    
C162     C      0.580373445000     0.894218830000     0.739333720000    -0.105972   
C163     C      0.562841520000     0.876041800000     0.744882775000    -0.023451   
C164     C      0.570128785000     0.852562550000     0.740630050000    -0.214742   
C165     C      0.688310265000     0.779152250000     0.732914400000     0.08129    
C166     C      0.687828450000     0.803635050000     0.729380665000    -0.182201   
C167     C      0.706347765000     0.814162150000     0.714614450000     0.013855   
C168     C      0.725443465000     0.800415900000     0.703055815000    -0.070205   
C169     C      0.725900575000     0.776057720000     0.706059010000     0.006161   
C170     C      0.707449690000     0.765491300000     0.720830000000    -0.084661   
C171     C      0.627386125000     0.733008070000     0.962006500000     0.262834   
C172     C      0.602118215000     0.866450050000     0.522384105000     0.261028   
C173     C      0.572631405000     0.838153350000     0.968100200000    -0.025934   
C174     C      0.592079110000     0.847773820000     0.506789385000    -0.070785   
C175     C      0.662087620000     0.757229030000     0.981319750000    -0.019039   
C176     C      0.670130640000     0.777918100000     0.992960065000     0.016776   
C177     C      0.652533860000     0.797048570000     0.993732630000    -0.030437   
C178     C      0.627219335000     0.795882015000     0.982341020000    -0.015643   
C179     C      0.620901385000     0.776260970000     0.968088565000     0.05504    
C180     C      0.608025535000     0.813824600000     0.984861670000    -0.007965   
C181     C      0.587088085000     0.816441650000     0.967950500000    -0.012724   
C182     C      0.581331350000     0.796960325000     0.952546800000     0.021838   
C183     C      0.598211975000     0.777130785000     0.953114250000    -0.075003   
C184     C      0.608834170000     0.828523130000     0.504702210000    -0.007753   
C185     C      0.572940200000     0.852322070000     0.988882600000     0.056184   
C186     C      0.637195810000     0.756033125000     0.969722100000    -0.078117   
C187     C      0.531038855000     0.867834420000     0.502928735000    -0.000223   
C188     C      0.555104455000     0.794177700000     0.938969670000    -0.061547   
C189     C      0.559248925000     0.791540830000     0.912292330000    -0.14325    
C190     C      0.562135270000     0.849190100000     0.945379150000    -0.036377   
C191     C      0.577465765000     0.871561380000     0.939134500000    -0.151271   
C192     C      0.699857190000     0.763964770000     0.523831725000    -0.087553   
C193     C      0.602602675000     0.997572150000     0.609329505000     0.022477   
C194     C      0.598884130000     0.827858030000     0.621252250000     0.139936   
C195     C      0.601992130000     0.971307350000     0.611156290000     0.044013   
C196     C      0.599430970000     0.854111600000     0.619399125000    -0.13254    
C197     C      0.601499280000     0.949454950000     0.612679885000     0.005711   
C198     C      0.599895290000     0.875973165000     0.617855745000    -0.109857   
C199     C      0.600926510000     0.923601150000     0.614496985000    -0.003155   
C200     C      0.600451320000     0.901821375000     0.616029220000     0.013683   
C201     C      0.854392300000     0.553975740000     0.562014995000     0.439961   
C202     C      0.840588630000     0.544047920000     0.893837480000     0.253511   
C203     C      0.852256120000     0.552439405000     0.535989345000     0.997419   
C204     C      0.842724770000     0.545584255000     0.919863135000    -0.082077   
C205     C      0.850477900000     0.551160465000     0.514324305000    -0.344142   
C206     C      0.844502950000     0.546863150000     0.941528170000     0.07162    
C207     C      0.848379550000     0.549651295000     0.988758775000     0.13896    
C208     C      0.846601365000     0.548372365000     0.967093700000    -0.096581   
C209     C      0.599788860000     0.742880670000     0.623337715000    -0.391988   
C210     C      0.600139850000     0.721252500000     0.620274170000     0.225659   
C211     C      0.600911565000     0.674305200000     0.613658940000     0.046493   
C212     C      0.601330645000     0.648839650000     0.610066475000    -0.015954   
C213     C      0.601681545000     0.627217200000     0.607003755000     0.009322   
C214     C      0.599382675000     0.768712650000     0.627029450000     1.16006    
C215     C      0.602091140000     0.601391145000     0.603311775000     0.075048   
C216     C      0.600555420000     0.695786790000     0.616682775000    -0.104372   
C217     C      0.656909170000     0.779589300000     0.751919650000    -0.102807   
C218     C      0.610211410000     0.829359175000     0.732229190000    -0.419538   
C219     C      0.602061840000     0.791044385000     0.706730815000     0.312738   
C220     C      0.632226810000     0.818014250000     0.747502820000    -0.117896   
C221     C      0.616849295000     0.779514370000     0.727417230000    -0.055574   
C222     C      0.640829450000     0.817971600000     0.698477490000    -0.582945   
C223     C      0.610875120000     0.817608980000     0.706588670000     1.6322     
C224     C      0.641592740000     0.794473320000     0.735567285000    -0.019972   
C225     C      0.657885610000     0.801234500000     0.713699200000     0.062113   
C226     C      0.577639500000     0.848811850000     0.694674800000    -1.98415    
C227     C      0.594829670000     0.827452850000     0.665032650000    -7.41071    
C228     C      0.594991855000     0.830853750000     0.689360185000    -0.484325   
C229     C      0.649242775000     0.777392400000     0.775209575000     0.094212   
C230     C      0.667387575000     0.757885450000     0.744655950000     0.058231   
C231     C      0.582888250000     0.828320475000     0.745385915000     0.118772   
C232     C      0.580086180000     0.848254900000     0.763730250000    -0.185161   
C233     C      0.571843850000     0.784258050000     0.707339690000     0.006247   
C234     C      0.556356960000     0.787714150000     0.684200125000    -0.166478   
C235     C      0.839040700000     0.948956650000     0.852265600000    -0.065743   
C236     C      0.771823200000     0.875264750000     0.844829915000     0.188741   
C237     C      0.891628175000     0.505311015000     0.858052800000     0.407297   
C238     C      0.791666330000     0.894381585000     0.846942300000    -0.189132   
C239     C      0.871796280000     0.986179950000     0.855912180000    -0.184813   
C240     C      0.807031650000     0.911215950000     0.848645400000    -0.028799   
C241     C      0.856445520000     0.969334275000     0.854220450000     0.061996   
C242     C      0.824447500000     0.931582900000     0.850614580000    -0.064445   
C243     C      0.847703750000     0.546370310000     0.643393400000     0.42414    
C244     C      0.847807525000     0.551437780000     0.812375785000     0.269035   
C245     C      0.847714350000     0.547149365000     0.669560225000    -0.139606   
C246     C      0.847770400000     0.550643020000     0.786208870000    -0.09249    
C247     C      0.847718600000     0.547799265000     0.691318800000     0.072196   
C248     C      0.847745300000     0.549987180000     0.764450200000     0.038512   
C249     C      0.847720750000     0.548561535000     0.717002660000    -0.030504   
C250     C      0.847729115000     0.549212780000     0.738766385000    -0.011629   
C251     C      0.590528800000     0.798186750000     0.827853700000     3.44529    
C252     C      0.633203685000     0.822730300000     0.830198375000     0.233991   
C253     C      0.770463200000     0.798109830000     0.820473650000     10.6292    
C254     C      0.661373975000     0.823115765000     0.831860425000    -0.526545   
C255     C      0.756546550000     0.802935000000     0.841413750000    -7.60748    
C256     C      0.675762450000     0.801912950000     0.833866565000     0.307517   
C257     C      0.727919750000     0.803182100000     0.840218125000     2.60744    
C258     C      0.704103485000     0.802789050000     0.837825000000    -1.43669    
C259     C      0.842058035000     0.801489385000     0.844209250000    -47.5184    
C260     C      0.770345900000     0.806559600000     0.862869700000     14.3812    
C261     C      0.662752135000     0.780150200000     0.831469120000    -1.0356     
C262     C      0.798180520000     0.805344880000     0.863128065000    -29.3402    
C263     C      0.635086950000     0.779730150000     0.828753550000     0.261274   
C264     C      0.753916620000     0.817378135000     0.788712800000     0.886539   
C265     C      0.736800775000     0.814830850000     0.766458275000    -0.442833   
C266     C      0.684266750000     0.848957420000     0.809580800000     0.031331   
C267     C      0.702133090000     0.870572950000     0.810576500000    -0.176367   
C268     C      0.812565250000     0.800513030000     0.842454525000     91.5434    
C269     C      0.619959080000     0.800505200000     0.828605500000    -1.32521    
C270     C      0.798455900000     0.795321050000     0.820999025000    -15.5152    
C271     C      0.765059770000     0.541585880000     0.570403950000    -0.081917   
C272     C      0.757012100000     0.559034370000     0.586802380000    -0.023539   
C273     C      0.734102710000     0.554605190000     0.601309180000     0.013516   
C274     C      0.614002215000     0.533273700000     0.654285460000     0.239117   
C275     C      0.642798050000     0.536149290000     0.648837210000    -0.139295   
C276     C      0.654149575000     0.519024035000     0.633730320000     0.01429    
C277     C      0.677480670000     0.523450530000     0.621434270000    -0.072107   
C278     C      0.691381365000     0.544534455000     0.625968550000     0.063988   
C279     C      0.682283600000     0.560391255000     0.643270910000    -0.112699   
C280     C      0.657973485000     0.556688505000     0.654828000000     0.093443   
C281     C      0.769932600000     0.581141480000     0.587866165000     0.030765   
C282     C      0.793766700000     0.584299440000     0.574911650000    -0.12176    
C283     C      0.787320800000     0.545562930000     0.556026705000    -0.055708   
C284     C      0.714818015000     0.550260960000     0.612886375000    -0.027066   
C285     C      0.803799450000     0.565548150000     0.560591620000    -0.033162   
C286     C      0.832717270000     0.564578665000     0.553903485000     0.341412   
C287     C      0.807610000000     0.607400825000     0.575400770000     0.301566   
C288     C      0.757469030000     0.601396865000     0.601953330000    -0.105221   
C289     C      0.765718150000     0.600762660000     0.628124350000    -0.02016    
C290     C      0.754642070000     0.622115440000     0.641542850000    -0.158037   
C291     C      0.649152665000     0.575151190000     0.672843290000    -0.129491   
C292     C      0.647776840000     0.564971930000     0.697758600000    -0.006324   
C293     C      0.638977335000     0.583701140000     0.715700200000    -0.164901   
C294     C      0.750237200000     0.519003620000     0.568436040000     0.299668   
C295     C      0.793098700000     0.528953325000     0.536068150000     0.329366   
C296     C      0.685022620000     0.506764400000     0.602316825000     0.242618   
C297     C      0.831939370000     0.648710850000     0.852141300000     0.065009   
C298     C      0.832414300000     0.670077310000     0.850795350000    -0.120545   
C299     C      0.834100485000     0.745941450000     0.846016600000     0.815276   
C300     C      0.830253200000     0.572846720000     0.856920100000    -0.694658   
C301     C      0.830867680000     0.600492885000     0.855178625000     0.207052   
C302     C      0.833486000000     0.718295290000     0.847758050000    -0.352723   
C303     C      0.831342430000     0.621853410000     0.853833100000    -0.125378   
C304     C      0.833011270000     0.696934775000     0.849103570000     0.144508   
C305     C      0.961138800000     0.577156470000     0.645698635000     0.005043   
C306     C      0.924141700000     0.970909450000     0.588184745000    -0.056463   
C307     C      0.916364300000     0.961430100000     0.563582350000    -0.140659   
C308     C      0.942131350000     0.597870080000     0.650413990000    -0.046804   
C309     C      0.953671700000     0.618146175000     0.665815000000    -0.145692   
C310     C      0.537419915000     0.584968240000     0.628214400000    -0.029141   
C311     C      0.533906280000     0.597082930000     0.604474485000    -0.172652   
C312     C      0.983301000000     0.963558735000     0.581643695000    -0.030873   
C313     C      0.992175815000     0.955561300000     0.606115525000    -0.210336   
C314     C      0.906482430000     0.520538450000     0.578299575000     0.020047   
C315     C      0.907996550000     0.530038080000     0.553210060000    -0.156304   
C316     C      0.920606750000     0.566585960000     0.605537660000     0.177575   
C317     C      0.527795135000     0.531792280000     0.602486500000     0.294649   
C318     C      0.978862750000     0.572311590000     0.664345600000     0.01466    
C319     C      0.505942345000     0.571575435000     0.659127680000     0.026561   
C320     C      0.513506355000     0.570221670000     0.635309680000     0.014407   
C321     C      0.994297830000     0.560588255000     0.618844360000    -0.018133   
C322     C      0.967041650000     0.566290945000     0.622716635000     0.022806   
C323     C      0.500697195000     0.541825970000     0.602778690000    -0.047367   
C324     C      0.980111865000     0.528450380000     0.591623760000     0.004107   
C325     C      0.953067000000     0.534237215000     0.594562895000     0.021631   
C326     C      0.947308125000     0.556324565000     0.606389480000    -0.057832   
C327     C      0.986104650000     0.507352770000     0.579447030000     0.021603   
C328     C      0.970380500000     0.987786350000     0.583071210000    -0.014416   
C329     C      0.943070150000     0.991790900000     0.587002820000     0.001687   
C330     C      0.933967000000     0.515729850000     0.588200090000    -0.032535   
S331     S      0.615166605000     0.849931120000     0.830125780000     0.288355   
S332     S      0.753318650000     0.812796475000     0.889513225000    -3.98048    
S333     S      0.680691570000     0.753192750000     0.831980600000     0.699134   
S334     S      0.814882050000     0.784554750000     0.795156950000     4.0499     
I335     I      0.964516670000     0.568937080000     0.699668140000    -0.114374   
I336     I      0.534735205000     0.574763245000     0.686670275000    -0.088263   
I337     I      0.500343560000     0.509724780000     0.544916140000    -0.092768   
N338     N      0.555486025000     0.872130900000     0.990391375000    -0.165156   
N339     N      0.695750370000     0.779484035000     0.504079700000    -0.133643   
N340     N      0.565199055000     0.854246600000     0.675001160000     0.049238   
N341     N      0.576390580000     0.841845570000     0.656194760000     1.13249    
N342     N      0.653308930000     0.755378400000     0.781173170000    -0.198384   
N343     N      0.664500460000     0.742977380000     0.762366800000    -0.145188   
O344     O      0.598295070000     0.757215100000     0.670949965000    -0.306822   
O345     O      0.647158500000     0.819491050000     0.773006900000    -0.222524   
O346     O      0.602840630000     0.825908300000     0.777804225000    -0.243307   
O347     O      0.602977165000     0.793401600000     0.655190020000    -0.572352   
O348     O      0.644441320000     0.717909550000     0.953463225000    -0.213662   
O349     O      0.602229415000     0.728087085000     0.965179850000    -0.222679   
O350     O      0.627719100000     0.870379150000     0.521338045000    -0.2111     
O351     O      0.585507200000     0.880556675000     0.533054650000    -0.210852   
O352     O      0.579981545000     0.509323775000     0.605871745000    -0.661061   
O353     O      0.625755220000     0.508813145000     0.611216850000    -0.433736   
O354     O      0.601118565000     0.814559600000     0.601864725000    -0.668017   
O355     O      0.596217590000     0.818156500000     0.642269685000     0.21547    
O356     O      0.875354825000     0.563948085000     0.571959615000    -0.364173   
O357     O      0.835306970000     0.545353545000     0.574941875000    -0.820744   
O358     O      0.850308200000     0.525628015000     0.882583750000    -0.625657   
O359     O      0.828991850000     0.561117695000     0.882219800000    -0.094488   
O360     O      0.609919010000     0.587727480000     0.620500865000    -0.769636   
O361     O      0.594617040000     0.592320555000     0.582864315000    -0.459622   
O362     O      0.606856785000     0.777783200000     0.647476900000    -0.414639   
O363     O      0.591554805000     0.782376230000     0.609840340000    -2.31788    
O364     O      0.746307550000     0.881778800000     0.842817875000    -0.238367   
O365     O      0.917137535000     0.998794735000     0.860242750000    -0.213448   
O366     O      0.779858320000     0.852603080000     0.845184850000    -0.364101   
O367     O      0.883586750000     0.527970435000     0.857875750000    -0.886236   
O368     O      0.869337170000     0.552163975000     0.632003980000    -0.742161   
O369     O      0.826065800000     0.539888820000     0.631755160000    -0.488122   
O370     O      0.840685200000     0.570840865000     0.823566250000    -0.490367   
O371     O      0.854792150000     0.532682125000     0.824212150000    -0.336348   
O372     O      0.576528015000     0.811850370000     0.841305550000    -1.01596    
O373     O      0.856098600000     0.786713850000     0.832021300000     8.9842     
O374     O      0.579196340000     0.781934250000     0.814724700000    -1.01791    
O375     O      0.772638950000     0.820491550000     0.908628200000     0.444606   
O376     O      0.733213065000     0.832126750000     0.885687770000     0.531151   
O377     O      0.737459375000     0.788394550000     0.898233650000     0.325049   
O378     O      0.690210090000     0.748951800000     0.856824220000    -0.271031   
O379     O      0.663336665000     0.732978580000     0.823904485000    -0.28411    
O380     O      0.853430250000     0.816629975000     0.858602150000     6.11187    
O381     O      0.707401365000     0.754664650000     0.814305780000    -0.348271   
O382     O      0.828671750000     0.761755600000     0.800837150000    -1.7515     
O383     O      0.795927850000     0.779823720000     0.774850450000    -0.907192   
O384     O      0.837627770000     0.804298000000     0.786683150000    -1.37127    
O385     O      0.595187985000     0.849401830000     0.810200350000    -0.228482   
O386     O      0.600697480000     0.852910900000     0.853081525000    -0.174521   
O387     O      0.634919940000     0.873542665000     0.826891100000    -0.271901   
O388     O      0.756199775000     0.795197250000     0.799558600000    -2.65893    
O389     O      0.675020920000     0.844276550000     0.832570730000    -0.027573   
O390     O      0.600780620000     0.550313115000     0.663326160000    -0.250966   
O391     O      0.602002280000     0.514994460000     0.646345185000    -0.350464   
O392     O      0.841133800000     0.546332975000     0.543052585000    -0.986085   
O393     O      0.849399475000     0.579874755000     0.562086215000    -0.328245   
O394     O      0.813637970000     0.616936600000     0.594221940000    -0.271959   
O395     O      0.814049570000     0.618061900000     0.554132660000    -0.299479   
O396     O      0.739614380000     0.513115595000     0.549692810000    -0.222627   
O397     O      0.748944075000     0.504366815000     0.588009695000    -0.326699   
O398     O      0.795111715000     0.507793035000     0.539446655000    -0.241284   
O399     O      0.796672165000     0.537816020000     0.513418150000    -0.276631   
O400     O      0.685953320000     0.985627200000     0.606107850000    -0.204405   
O401     O      0.689289720000     0.515082690000     0.579583885000    -0.29276    
O402     O      0.811992675000     0.759394230000     0.849501200000    -2.79777    
O403     O      0.852360950000     0.559393940000     0.853435500000    -0.310503   
O404     O      0.856771050000     0.757810550000     0.840936900000    -2.48212    
O405     O      0.807582600000     0.560977595000     0.861999800000    -0.404456   
O406     O      0.530876695000     0.509103730000     0.603534650000    -0.189027   
O407     O      0.910926970000     0.571726390000     0.625645370000    -0.324534   
O408     O      0.907190600000     0.570012710000     0.585736140000    -0.278266   
O409     O      0.547847750000     0.545678285000     0.600693055000    -0.327592   


