data_sample_11_relaxed_charged

_audit_creation_method RASPA-1.0
_audit_creation_date 2026-2-5
_audit_author_name ''

_cell_length_a    10.7573
_cell_length_b    12.6462
_cell_length_c    23.215
_cell_angle_alpha 85.9767
_cell_angle_beta  83.1004
_cell_angle_gamma 80.5176
_cell_volume      24706.6

_symmetry_cell_setting          triclinic
_symmetry_space_group_name_Hall 'P 1'
_symmetry_space_group_name_H-M  'P 1'
_symmetry_Int_Tables_number     1

_symmetry_equiv_pos_as_xyz 'x,y,z'

loop_
_atom_site_label
_atom_site_type_symbol
_atom_site_fract_x
_atom_site_fract_y
_atom_site_fract_z
_atom_site_charge
Zn0      Zn     0.163764625000     0.008958560000     0.325903250000     0.088507   
Zn0      Zn     0.163764625000     0.008958560000     0.825903250000     0.088507   
Zn0      Zn     0.163764625000     0.508958560000     0.325903250000     0.088507   
Zn0      Zn     0.163764625000     0.508958560000     0.825903250000     0.088507   
Zn0      Zn     0.663764625000     0.008958560000     0.325903250000     0.088507   
Zn0      Zn     0.663764625000     0.008958560000     0.825903250000     0.088507   
Zn0      Zn     0.663764625000     0.508958560000     0.325903250000     0.088507   
Zn0      Zn     0.663764625000     0.508958560000     0.825903250000     0.088507   
Zn1      Zn     0.058038360000     0.054066835000     0.284574400000     0.043627   
Zn1      Zn     0.058038360000     0.054066835000     0.784574400000     0.043627   
Zn1      Zn     0.058038360000     0.554066835000     0.284574400000     0.043627   
Zn1      Zn     0.058038360000     0.554066835000     0.784574400000     0.043627   
Zn1      Zn     0.558038360000     0.054066835000     0.284574400000     0.043627   
Zn1      Zn     0.558038360000     0.054066835000     0.784574400000     0.043627   
Zn1      Zn     0.558038360000     0.554066835000     0.284574400000     0.043627   
Zn1      Zn     0.558038360000     0.554066835000     0.784574400000     0.043627   
Zn2      Zn     0.049114840000     0.098756700000     0.347602400000     0.057025   
Zn2      Zn     0.049114840000     0.098756700000     0.847602400000     0.057025   
Zn2      Zn     0.049114840000     0.598756700000     0.347602400000     0.057025   
Zn2      Zn     0.049114840000     0.598756700000     0.847602400000     0.057025   
Zn2      Zn     0.549114840000     0.098756700000     0.347602400000     0.057025   
Zn2      Zn     0.549114840000     0.098756700000     0.847602400000     0.057025   
Zn2      Zn     0.549114840000     0.598756700000     0.347602400000     0.057025   
Zn2      Zn     0.549114840000     0.598756700000     0.847602400000     0.057025   
Zn3      Zn     0.155288770000     0.128539325000     0.298477250000     0.074151   
Zn3      Zn     0.155288770000     0.128539325000     0.798477250000     0.074151   
Zn3      Zn     0.155288770000     0.628539325000     0.298477250000     0.074151   
Zn3      Zn     0.155288770000     0.628539325000     0.798477250000     0.074151   
Zn3      Zn     0.655288770000     0.128539325000     0.298477250000     0.074151   
Zn3      Zn     0.655288770000     0.128539325000     0.798477250000     0.074151   
Zn3      Zn     0.655288770000     0.628539325000     0.298477250000     0.074151   
Zn3      Zn     0.655288770000     0.628539325000     0.798477250000     0.074151   
H4       H      0.336532100000     0.397878100000     0.368125080000     0.035876   
H4       H      0.336532100000     0.397878100000     0.868125080000     0.035876   
H4       H      0.336532100000     0.897878100000     0.368125080000     0.035876   
H4       H      0.336532100000     0.897878100000     0.868125080000     0.035876   
H4       H      0.836532100000     0.397878100000     0.368125080000     0.035876   
H4       H      0.836532100000     0.397878100000     0.868125080000     0.035876   
H4       H      0.836532100000     0.897878100000     0.368125080000     0.035876   
H4       H      0.836532100000     0.897878100000     0.868125080000     0.035876   
H5       H      0.447780730000     0.408187450000     0.369412550000     0.214102   
H5       H      0.447780730000     0.408187450000     0.869412550000     0.214102   
H5       H      0.447780730000     0.908187450000     0.369412550000     0.214102   
H5       H      0.447780730000     0.908187450000     0.869412550000     0.214102   
H5       H      0.947780730000     0.408187450000     0.369412550000     0.214102   
H5       H      0.947780730000     0.408187450000     0.869412550000     0.214102   
H5       H      0.947780730000     0.908187450000     0.369412550000     0.214102   
H5       H      0.947780730000     0.908187450000     0.869412550000     0.214102   
H6       H      0.205400140000     0.165274800000     0.335284900000     0.128965   
H6       H      0.205400140000     0.165274800000     0.835284900000     0.128965   
H6       H      0.205400140000     0.665274800000     0.335284900000     0.128965   
H6       H      0.205400140000     0.665274800000     0.835284900000     0.128965   
H6       H      0.705400140000     0.165274800000     0.335284900000     0.128965   
H6       H      0.705400140000     0.165274800000     0.835284900000     0.128965   
H6       H      0.705400140000     0.665274800000     0.335284900000     0.128965   
H6       H      0.705400140000     0.665274800000     0.835284900000     0.128965   
H7       H      0.426852450000     0.185796590000     0.337847750000     0.07249    
H7       H      0.426852450000     0.185796590000     0.837847750000     0.07249    
H7       H      0.426852450000     0.685796590000     0.337847750000     0.07249    
H7       H      0.426852450000     0.685796590000     0.837847750000     0.07249    
H7       H      0.926852450000     0.185796590000     0.337847750000     0.07249    
H7       H      0.926852450000     0.185796590000     0.837847750000     0.07249    
H7       H      0.926852450000     0.685796590000     0.337847750000     0.07249    
H7       H      0.926852450000     0.685796590000     0.837847750000     0.07249    
H8       H      0.233855160000     0.252266200000     0.337846600000     0.042112   
H8       H      0.233855160000     0.252266200000     0.837846600000     0.042112   
H8       H      0.233855160000     0.752266200000     0.337846600000     0.042112   
H8       H      0.233855160000     0.752266200000     0.837846600000     0.042112   
H8       H      0.733855160000     0.252266200000     0.337846600000     0.042112   
H8       H      0.733855160000     0.252266200000     0.837846600000     0.042112   
H8       H      0.733855160000     0.752266200000     0.337846600000     0.042112   
H8       H      0.733855160000     0.752266200000     0.837846600000     0.042112   
H9       H      0.345209450000     0.262585300000     0.339135320000    -0.066098   
H9       H      0.345209450000     0.262585300000     0.839135320000    -0.066098   
H9       H      0.345209450000     0.762585300000     0.339135320000    -0.066098   
H9       H      0.345209450000     0.762585300000     0.839135320000    -0.066098   
H9       H      0.845209450000     0.262585300000     0.339135320000    -0.066098   
H9       H      0.845209450000     0.262585300000     0.839135320000    -0.066098   
H9       H      0.845209450000     0.762585300000     0.339135320000    -0.066098   
H9       H      0.845209450000     0.762585300000     0.839135320000    -0.066098   
H10      H      0.482397885000     0.492064925000     0.355159880000     0.049937   
H10      H      0.482397885000     0.492064925000     0.855159880000     0.049937   
H10      H      0.482397885000     0.992064925000     0.355159880000     0.049937   
H10      H      0.482397885000     0.992064925000     0.855159880000     0.049937   
H10      H      0.982397885000     0.492064925000     0.355159880000     0.049937   
H10      H      0.982397885000     0.492064925000     0.855159880000     0.049937   
H10      H      0.982397885000     0.992064925000     0.355159880000     0.049937   
H10      H      0.982397885000     0.992064925000     0.855159880000     0.049937   
H11      H      0.261544230000     0.471598600000     0.352603970000     0.069378   
H11      H      0.261544230000     0.471598600000     0.852603970000     0.069378   
H11      H      0.261544230000     0.971598600000     0.352603970000     0.069378   
H11      H      0.261544230000     0.971598600000     0.852603970000     0.069378   
H11      H      0.761544230000     0.471598600000     0.352603970000     0.069378   
H11      H      0.761544230000     0.471598600000     0.852603970000     0.069378   
H11      H      0.761544230000     0.971598600000     0.352603970000     0.069378   
H11      H      0.761544230000     0.971598600000     0.852603970000     0.069378   
H12      H      0.185667290000     0.158315880000     0.367455275000     0.04943    
H12      H      0.185667290000     0.158315880000     0.867455275000     0.04943    
H12      H      0.185667290000     0.658315880000     0.367455275000     0.04943    
H12      H      0.185667290000     0.658315880000     0.867455275000     0.04943    
H12      H      0.685667290000     0.158315880000     0.367455275000     0.04943    
H12      H      0.685667290000     0.158315880000     0.867455275000     0.04943    
H12      H      0.685667290000     0.658315880000     0.367455275000     0.04943    
H12      H      0.685667290000     0.658315880000     0.867455275000     0.04943    
H13      H      0.117465885000     0.327712450000     0.237632410000     0.032956   
H13      H      0.117465885000     0.327712450000     0.737632410000     0.032956   
H13      H      0.117465885000     0.827712450000     0.237632410000     0.032956   
H13      H      0.117465885000     0.827712450000     0.737632410000     0.032956   
H13      H      0.617465885000     0.327712450000     0.237632410000     0.032956   
H13      H      0.617465885000     0.327712450000     0.737632410000     0.032956   
H13      H      0.617465885000     0.827712450000     0.237632410000     0.032956   
H13      H      0.617465885000     0.827712450000     0.737632410000     0.032956   
H14      H      0.069780470000     0.420390350000     0.222833975000    -0.071785   
H14      H      0.069780470000     0.420390350000     0.722833975000    -0.071785   
H14      H      0.069780470000     0.920390350000     0.222833975000    -0.071785   
H14      H      0.069780470000     0.920390350000     0.722833975000    -0.071785   
H14      H      0.569780470000     0.420390350000     0.222833975000    -0.071785   
H14      H      0.569780470000     0.420390350000     0.722833975000    -0.071785   
H14      H      0.569780470000     0.920390350000     0.222833975000    -0.071785   
H14      H      0.569780470000     0.920390350000     0.722833975000    -0.071785   
H15      H      0.028325895000     0.488193350000     0.261198900000    -0.019386   
H15      H      0.028325895000     0.488193350000     0.761198900000    -0.019386   
H15      H      0.028325895000     0.988193350000     0.261198900000    -0.019386   
H15      H      0.028325895000     0.988193350000     0.761198900000    -0.019386   
H15      H      0.528325895000     0.488193350000     0.261198900000    -0.019386   
H15      H      0.528325895000     0.488193350000     0.761198900000    -0.019386   
H15      H      0.528325895000     0.988193350000     0.261198900000    -0.019386   
H15      H      0.528325895000     0.988193350000     0.761198900000    -0.019386   
H16      H      0.033450300000     0.461067170000     0.313849000000     0.088755   
H16      H      0.033450300000     0.461067170000     0.813849000000     0.088755   
H16      H      0.033450300000     0.961067170000     0.313849000000     0.088755   
H16      H      0.033450300000     0.961067170000     0.813849000000     0.088755   
H16      H      0.533450300000     0.461067170000     0.313849000000     0.088755   
H16      H      0.533450300000     0.461067170000     0.813849000000     0.088755   
H16      H      0.533450300000     0.961067170000     0.313849000000     0.088755   
H16      H      0.533450300000     0.961067170000     0.813849000000     0.088755   
H17      H      0.099597440000     0.319714500000     0.390921700000     0.071816   
H17      H      0.099597440000     0.319714500000     0.890921700000     0.071816   
H17      H      0.099597440000     0.819714500000     0.390921700000     0.071816   
H17      H      0.099597440000     0.819714500000     0.890921700000     0.071816   
H17      H      0.599597440000     0.319714500000     0.390921700000     0.071816   
H17      H      0.599597440000     0.319714500000     0.890921700000     0.071816   
H17      H      0.599597440000     0.819714500000     0.390921700000     0.071816   
H17      H      0.599597440000     0.819714500000     0.890921700000     0.071816   
H18      H      0.144407215000     0.226164760000     0.405814750000     0.062942   
H18      H      0.144407215000     0.226164760000     0.905814750000     0.062942   
H18      H      0.144407215000     0.726164760000     0.405814750000     0.062942   
H18      H      0.144407215000     0.726164760000     0.905814750000     0.062942   
H18      H      0.644407215000     0.226164760000     0.405814750000     0.062942   
H18      H      0.644407215000     0.226164760000     0.905814750000     0.062942   
H18      H      0.644407215000     0.726164760000     0.405814750000     0.062942   
H18      H      0.644407215000     0.726164760000     0.905814750000     0.062942   
H19      H      0.177617030000     0.184655740000     0.314885250000     0.061403   
H19      H      0.177617030000     0.184655740000     0.814885250000     0.061403   
H19      H      0.177617030000     0.684655740000     0.314885250000     0.061403   
H19      H      0.177617030000     0.684655740000     0.814885250000     0.061403   
H19      H      0.677617030000     0.184655740000     0.314885250000     0.061403   
H19      H      0.677617030000     0.184655740000     0.814885250000     0.061403   
H19      H      0.677617030000     0.684655740000     0.314885250000     0.061403   
H19      H      0.677617030000     0.684655740000     0.814885250000     0.061403   
H20      H      0.213408680000     0.470911200000     0.167030675000     0.054508   
H20      H      0.213408680000     0.470911200000     0.667030675000     0.054508   
H20      H      0.213408680000     0.970911200000     0.167030675000     0.054508   
H20      H      0.213408680000     0.970911200000     0.667030675000     0.054508   
H20      H      0.713408680000     0.470911200000     0.167030675000     0.054508   
H20      H      0.713408680000     0.470911200000     0.667030675000     0.054508   
H20      H      0.713408680000     0.970911200000     0.167030675000     0.054508   
H20      H      0.713408680000     0.970911200000     0.667030675000     0.054508   
H21      H      0.197017700000     0.127542720000     0.445323450000     0.036795   
H21      H      0.197017700000     0.127542720000     0.945323450000     0.036795   
H21      H      0.197017700000     0.627542720000     0.445323450000     0.036795   
H21      H      0.197017700000     0.627542720000     0.945323450000     0.036795   
H21      H      0.697017700000     0.127542720000     0.445323450000     0.036795   
H21      H      0.697017700000     0.127542720000     0.945323450000     0.036795   
H21      H      0.697017700000     0.627542720000     0.445323450000     0.036795   
H21      H      0.697017700000     0.627542720000     0.945323450000     0.036795   
H22      H      0.209729790000     0.458042650000     0.219880730000     0.056988   
H22      H      0.209729790000     0.458042650000     0.719880730000     0.056988   
H22      H      0.209729790000     0.958042650000     0.219880730000     0.056988   
H22      H      0.209729790000     0.958042650000     0.719880730000     0.056988   
H22      H      0.709729790000     0.458042650000     0.219880730000     0.056988   
H22      H      0.709729790000     0.458042650000     0.719880730000     0.056988   
H22      H      0.709729790000     0.958042650000     0.219880730000     0.056988   
H22      H      0.709729790000     0.958042650000     0.719880730000     0.056988   
H23      H      0.178892135000     0.145576100000     0.394303920000     0.081315   
H23      H      0.178892135000     0.145576100000     0.894303920000     0.081315   
H23      H      0.178892135000     0.645576100000     0.394303920000     0.081315   
H23      H      0.178892135000     0.645576100000     0.894303920000     0.081315   
H23      H      0.678892135000     0.145576100000     0.394303920000     0.081315   
H23      H      0.678892135000     0.145576100000     0.894303920000     0.081315   
H23      H      0.678892135000     0.645576100000     0.394303920000     0.081315   
H23      H      0.678892135000     0.645576100000     0.894303920000     0.081315   
H24      H      0.057933055000     0.092483120000     0.229176100000     0.015831   
H24      H      0.057933055000     0.092483120000     0.729176100000     0.015831   
H24      H      0.057933055000     0.592483120000     0.229176100000     0.015831   
H24      H      0.057933055000     0.592483120000     0.729176100000     0.015831   
H24      H      0.557933055000     0.092483120000     0.229176100000     0.015831   
H24      H      0.557933055000     0.092483120000     0.729176100000     0.015831   
H24      H      0.557933055000     0.592483120000     0.229176100000     0.015831   
H24      H      0.557933055000     0.592483120000     0.729176100000     0.015831   
H25      H      0.498526450000     0.089814665000     0.412893535000     0.048326   
H25      H      0.498526450000     0.089814665000     0.912893535000     0.048326   
H25      H      0.498526450000     0.589814665000     0.412893535000     0.048326   
H25      H      0.498526450000     0.589814665000     0.912893535000     0.048326   
H25      H      0.998526450000     0.089814665000     0.412893535000     0.048326   
H25      H      0.998526450000     0.089814665000     0.912893535000     0.048326   
H25      H      0.998526450000     0.589814665000     0.412893535000     0.048326   
H25      H      0.998526450000     0.589814665000     0.912893535000     0.048326   
H26      H      0.056240590000     0.100501250000     0.176671370000     0.039851   
H26      H      0.056240590000     0.100501250000     0.676671370000     0.039851   
H26      H      0.056240590000     0.600501250000     0.176671370000     0.039851   
H26      H      0.056240590000     0.600501250000     0.676671370000     0.039851   
H26      H      0.556240590000     0.100501250000     0.176671370000     0.039851   
H26      H      0.556240590000     0.100501250000     0.676671370000     0.039851   
H26      H      0.556240590000     0.600501250000     0.176671370000     0.039851   
H26      H      0.556240590000     0.600501250000     0.676671370000     0.039851   
H27      H      0.013161380000     0.078723300000     0.464311200000     0.057181   
H27      H      0.013161380000     0.078723300000     0.964311200000     0.057181   
H27      H      0.013161380000     0.578723300000     0.464311200000     0.057181   
H27      H      0.013161380000     0.578723300000     0.964311200000     0.057181   
H27      H      0.513161380000     0.078723300000     0.464311200000     0.057181   
H27      H      0.513161380000     0.078723300000     0.964311200000     0.057181   
H27      H      0.513161380000     0.578723300000     0.464311200000     0.057181   
H27      H      0.513161380000     0.578723300000     0.964311200000     0.057181   
H28      H      0.042367265000     0.219312640000     0.026609770000     0.069689   
H28      H      0.042367265000     0.219312640000     0.526609770000     0.069689   
H28      H      0.042367265000     0.719312640000     0.026609770000     0.069689   
H28      H      0.042367265000     0.719312640000     0.526609770000     0.069689   
H28      H      0.542367265000     0.219312640000     0.026609770000     0.069689   
H28      H      0.542367265000     0.219312640000     0.526609770000     0.069689   
H28      H      0.542367265000     0.719312640000     0.026609770000     0.069689   
H28      H      0.542367265000     0.719312640000     0.526609770000     0.069689   
H29      H      0.035652985000     0.235502465000     0.064122750000     0.068509   
H29      H      0.035652985000     0.235502465000     0.564122750000     0.068509   
H29      H      0.035652985000     0.735502465000     0.064122750000     0.068509   
H29      H      0.035652985000     0.735502465000     0.564122750000     0.068509   
H29      H      0.535652985000     0.235502465000     0.064122750000     0.068509   
H29      H      0.535652985000     0.235502465000     0.564122750000     0.068509   
H29      H      0.535652985000     0.735502465000     0.064122750000     0.068509   
H29      H      0.535652985000     0.735502465000     0.564122750000     0.068509   
H30      H      0.052184185000     0.285229650000     0.035694580000     0.058482   
H30      H      0.052184185000     0.285229650000     0.535694580000     0.058482   
H30      H      0.052184185000     0.785229650000     0.035694580000     0.058482   
H30      H      0.052184185000     0.785229650000     0.535694580000     0.058482   
H30      H      0.552184185000     0.285229650000     0.035694580000     0.058482   
H30      H      0.552184185000     0.285229650000     0.535694580000     0.058482   
H30      H      0.552184185000     0.785229650000     0.035694580000     0.058482   
H30      H      0.552184185000     0.785229650000     0.535694580000     0.058482   
H31      H      0.145884600000     0.249158400000     0.059442460000     0.049533   
H31      H      0.145884600000     0.249158400000     0.559442460000     0.049533   
H31      H      0.145884600000     0.749158400000     0.059442460000     0.049533   
H31      H      0.145884600000     0.749158400000     0.559442460000     0.049533   
H31      H      0.645884600000     0.249158400000     0.059442460000     0.049533   
H31      H      0.645884600000     0.249158400000     0.559442460000     0.049533   
H31      H      0.645884600000     0.749158400000     0.059442460000     0.049533   
H31      H      0.645884600000     0.749158400000     0.559442460000     0.049533   
H32      H      0.160578280000     0.234907300000     0.022795545000     0.06405    
H32      H      0.160578280000     0.234907300000     0.522795545000     0.06405    
H32      H      0.160578280000     0.734907300000     0.022795545000     0.06405    
H32      H      0.160578280000     0.734907300000     0.522795545000     0.06405    
H32      H      0.660578280000     0.234907300000     0.022795545000     0.06405    
H32      H      0.660578280000     0.234907300000     0.522795545000     0.06405    
H32      H      0.660578280000     0.734907300000     0.022795545000     0.06405    
H32      H      0.660578280000     0.734907300000     0.522795545000     0.06405    
H33      H      0.017882335000     0.462079850000     0.115141160000     0.063818   
H33      H      0.017882335000     0.462079850000     0.615141160000     0.063818   
H33      H      0.017882335000     0.962079850000     0.115141160000     0.063818   
H33      H      0.017882335000     0.962079850000     0.615141160000     0.063818   
H33      H      0.517882335000     0.462079850000     0.115141160000     0.063818   
H33      H      0.517882335000     0.462079850000     0.615141160000     0.063818   
H33      H      0.517882335000     0.962079850000     0.115141160000     0.063818   
H33      H      0.517882335000     0.962079850000     0.615141160000     0.063818   
H34      H      0.493665450000     0.453216600000     0.080224840000     0.057603   
H34      H      0.493665450000     0.453216600000     0.580224840000     0.057603   
H34      H      0.493665450000     0.953216600000     0.080224840000     0.057603   
H34      H      0.493665450000     0.953216600000     0.580224840000     0.057603   
H34      H      0.993665450000     0.453216600000     0.080224840000     0.057603   
H34      H      0.993665450000     0.453216600000     0.580224840000     0.057603   
H34      H      0.993665450000     0.953216600000     0.080224840000     0.057603   
H34      H      0.993665450000     0.953216600000     0.580224840000     0.057603   
H35      H      0.003537640000     0.397242800000     0.106437005000     0.061005   
H35      H      0.003537640000     0.397242800000     0.606437005000     0.061005   
H35      H      0.003537640000     0.897242800000     0.106437005000     0.061005   
H35      H      0.003537640000     0.897242800000     0.606437005000     0.061005   
H35      H      0.503537640000     0.397242800000     0.106437005000     0.061005   
H35      H      0.503537640000     0.397242800000     0.606437005000     0.061005   
H35      H      0.503537640000     0.897242800000     0.106437005000     0.061005   
H35      H      0.503537640000     0.897242800000     0.606437005000     0.061005   
H36      H      0.090251760000     0.390579450000     0.067543360000     0.039236   
H36      H      0.090251760000     0.390579450000     0.567543360000     0.039236   
H36      H      0.090251760000     0.890579450000     0.067543360000     0.039236   
H36      H      0.090251760000     0.890579450000     0.567543360000     0.039236   
H36      H      0.590251760000     0.390579450000     0.067543360000     0.039236   
H36      H      0.590251760000     0.390579450000     0.567543360000     0.039236   
H36      H      0.590251760000     0.890579450000     0.067543360000     0.039236   
H36      H      0.590251760000     0.890579450000     0.567543360000     0.039236   
H37      H      0.120746615000     0.394134370000     0.100397260000     0.0514     
H37      H      0.120746615000     0.394134370000     0.600397260000     0.0514     
H37      H      0.120746615000     0.894134370000     0.100397260000     0.0514     
H37      H      0.120746615000     0.894134370000     0.600397260000     0.0514     
H37      H      0.620746615000     0.394134370000     0.100397260000     0.0514     
H37      H      0.620746615000     0.394134370000     0.600397260000     0.0514     
H37      H      0.620746615000     0.894134370000     0.100397260000     0.0514     
H37      H      0.620746615000     0.894134370000     0.600397260000     0.0514     
H38      H      0.295658680000     0.149450675000     0.061550880000    -0.129043   
H38      H      0.295658680000     0.149450675000     0.561550880000    -0.129043   
H38      H      0.295658680000     0.649450675000     0.061550880000    -0.129043   
H38      H      0.295658680000     0.649450675000     0.561550880000    -0.129043   
H38      H      0.795658680000     0.149450675000     0.061550880000    -0.129043   
H38      H      0.795658680000     0.149450675000     0.561550880000    -0.129043   
H38      H      0.795658680000     0.649450675000     0.061550880000    -0.129043   
H38      H      0.795658680000     0.649450675000     0.561550880000    -0.129043   
H39      H      0.256953865000     0.215725510000     0.051005090000     0.01786    
H39      H      0.256953865000     0.215725510000     0.551005090000     0.01786    
H39      H      0.256953865000     0.715725510000     0.051005090000     0.01786    
H39      H      0.256953865000     0.715725510000     0.551005090000     0.01786    
H39      H      0.756953865000     0.215725510000     0.051005090000     0.01786    
H39      H      0.756953865000     0.215725510000     0.551005090000     0.01786    
H39      H      0.756953865000     0.715725510000     0.051005090000     0.01786    
H39      H      0.756953865000     0.715725510000     0.551005090000     0.01786    
H40      H      0.305072850000     0.207028600000     0.080448380000     1.03713    
H40      H      0.305072850000     0.207028600000     0.580448380000     1.03713    
H40      H      0.305072850000     0.707028600000     0.080448380000     1.03713    
H40      H      0.305072850000     0.707028600000     0.580448380000     1.03713    
H40      H      0.805072850000     0.207028600000     0.080448380000     1.03713    
H40      H      0.805072850000     0.207028600000     0.580448380000     1.03713    
H40      H      0.805072850000     0.707028600000     0.080448380000     1.03713    
H40      H      0.805072850000     0.707028600000     0.580448380000     1.03713    
H41      H      0.188418435000     0.219166875000     0.099475435000     0.000771   
H41      H      0.188418435000     0.219166875000     0.599475435000     0.000771   
H41      H      0.188418435000     0.719166875000     0.099475435000     0.000771   
H41      H      0.188418435000     0.719166875000     0.599475435000     0.000771   
H41      H      0.688418435000     0.219166875000     0.099475435000     0.000771   
H41      H      0.688418435000     0.219166875000     0.599475435000     0.000771   
H41      H      0.688418435000     0.719166875000     0.099475435000     0.000771   
H41      H      0.688418435000     0.719166875000     0.599475435000     0.000771   
H42      H      0.235380990000     0.157680975000     0.110282795000     0.036345   
H42      H      0.235380990000     0.157680975000     0.610282795000     0.036345   
H42      H      0.235380990000     0.657680975000     0.110282795000     0.036345   
H42      H      0.235380990000     0.657680975000     0.610282795000     0.036345   
H42      H      0.735380990000     0.157680975000     0.110282795000     0.036345   
H42      H      0.735380990000     0.157680975000     0.610282795000     0.036345   
H42      H      0.735380990000     0.657680975000     0.110282795000     0.036345   
H42      H      0.735380990000     0.657680975000     0.610282795000     0.036345   
H43      H      0.254250850000     0.415971600000     0.039094260000    -0.064571   
H43      H      0.254250850000     0.415971600000     0.539094260000    -0.064571   
H43      H      0.254250850000     0.915971600000     0.039094260000    -0.064571   
H43      H      0.254250850000     0.915971600000     0.539094260000    -0.064571   
H43      H      0.754250850000     0.415971600000     0.039094260000    -0.064571   
H43      H      0.754250850000     0.415971600000     0.539094260000    -0.064571   
H43      H      0.754250850000     0.915971600000     0.039094260000    -0.064571   
H43      H      0.754250850000     0.915971600000     0.539094260000    -0.064571   
H44      H      0.203153800000     0.370961725000     0.057173225000    -0.079779   
H44      H      0.203153800000     0.370961725000     0.557173225000    -0.079779   
H44      H      0.203153800000     0.870961725000     0.057173225000    -0.079779   
H44      H      0.203153800000     0.870961725000     0.557173225000    -0.079779   
H44      H      0.703153800000     0.370961725000     0.057173225000    -0.079779   
H44      H      0.703153800000     0.370961725000     0.557173225000    -0.079779   
H44      H      0.703153800000     0.870961725000     0.057173225000    -0.079779   
H44      H      0.703153800000     0.870961725000     0.557173225000    -0.079779   
H45      H      0.238609270000     0.359868735000     0.020719560000     0.188883   
H45      H      0.238609270000     0.359868735000     0.520719560000     0.188883   
H45      H      0.238609270000     0.859868735000     0.020719560000     0.188883   
H45      H      0.238609270000     0.859868735000     0.520719560000     0.188883   
H45      H      0.738609270000     0.359868735000     0.020719560000     0.188883   
H45      H      0.738609270000     0.359868735000     0.520719560000     0.188883   
H45      H      0.738609270000     0.859868735000     0.020719560000     0.188883   
H45      H      0.738609270000     0.859868735000     0.520719560000     0.188883   
H46      H      0.123364550000     0.402652650000     0.021159850000     0.023132   
H46      H      0.123364550000     0.402652650000     0.521159850000     0.023132   
H46      H      0.123364550000     0.902652650000     0.021159850000     0.023132   
H46      H      0.123364550000     0.902652650000     0.521159850000     0.023132   
H46      H      0.623364550000     0.402652650000     0.021159850000     0.023132   
H46      H      0.623364550000     0.402652650000     0.521159850000     0.023132   
H46      H      0.623364550000     0.902652650000     0.021159850000     0.023132   
H46      H      0.623364550000     0.902652650000     0.521159850000     0.023132   
H47      H      0.180347710000     0.439524600000     0.001626860000    -0.353928   
H47      H      0.180347710000     0.439524600000     0.501626860000    -0.353928   
H47      H      0.180347710000     0.939524600000     0.001626860000    -0.353928   
H47      H      0.180347710000     0.939524600000     0.501626860000    -0.353928   
H47      H      0.680347710000     0.439524600000     0.001626860000    -0.353928   
H47      H      0.680347710000     0.439524600000     0.501626860000    -0.353928   
H47      H      0.680347710000     0.939524600000     0.001626860000    -0.353928   
H47      H      0.680347710000     0.939524600000     0.501626860000    -0.353928   
C48      C      0.255294770000     0.167501300000     0.331889125000    -0.031651   
C48      C      0.255294770000     0.167501300000     0.831889125000    -0.031651   
C48      C      0.255294770000     0.667501300000     0.331889125000    -0.031651   
C48      C      0.255294770000     0.667501300000     0.831889125000    -0.031651   
C48      C      0.755294770000     0.167501300000     0.331889125000    -0.031651   
C48      C      0.755294770000     0.167501300000     0.831889125000    -0.031651   
C48      C      0.755294770000     0.667501300000     0.331889125000    -0.031651   
C48      C      0.755294770000     0.667501300000     0.831889125000    -0.031651   
C49      C      0.380913230000     0.179142220000     0.333333335000     0.119207   
C49      C      0.380913230000     0.179142220000     0.833333335000     0.119207   
C49      C      0.380913230000     0.679142220000     0.333333335000     0.119207   
C49      C      0.380913230000     0.679142220000     0.833333335000     0.119207   
C49      C      0.880913230000     0.179142220000     0.333333335000     0.119207   
C49      C      0.880913230000     0.179142220000     0.833333335000     0.119207   
C49      C      0.880913230000     0.679142220000     0.333333335000     0.119207   
C49      C      0.880913230000     0.679142220000     0.833333335000     0.119207   
C50      C      0.225658210000     0.061447160000     0.316194535000    -0.018703   
C50      C      0.225658210000     0.061447160000     0.816194535000    -0.018703   
C50      C      0.225658210000     0.561447160000     0.316194535000    -0.018703   
C50      C      0.225658210000     0.561447160000     0.816194535000    -0.018703   
C50      C      0.725658210000     0.061447160000     0.316194535000    -0.018703   
C50      C      0.725658210000     0.061447160000     0.816194535000    -0.018703   
C50      C      0.725658210000     0.561447160000     0.316194535000    -0.018703   
C50      C      0.725658210000     0.561447160000     0.816194535000    -0.018703   
C51      C      0.483575165000     0.085348115000     0.319179350000    -0.015315   
C51      C      0.483575165000     0.085348115000     0.819179350000    -0.015315   
C51      C      0.483575165000     0.585348115000     0.319179350000    -0.015315   
C51      C      0.483575165000     0.585348115000     0.819179350000    -0.015315   
C51      C      0.983575165000     0.085348115000     0.319179350000    -0.015315   
C51      C      0.983575165000     0.085348115000     0.819179350000    -0.015315   
C51      C      0.983575165000     0.585348115000     0.319179350000    -0.015315   
C51      C      0.983575165000     0.585348115000     0.819179350000    -0.015315   
C52      C      0.270918050000     0.217939285000     0.334724700000    -0.022743   
C52      C      0.270918050000     0.217939285000     0.834724700000    -0.022743   
C52      C      0.270918050000     0.717939285000     0.334724700000    -0.022743   
C52      C      0.270918050000     0.717939285000     0.834724700000    -0.022743   
C52      C      0.770918050000     0.217939285000     0.334724700000    -0.022743   
C52      C      0.770918050000     0.217939285000     0.834724700000    -0.022743   
C52      C      0.770918050000     0.717939285000     0.334724700000    -0.022743   
C52      C      0.770918050000     0.717939285000     0.834724700000    -0.022743   
C53      C      0.333551200000     0.223743450000     0.335449515000    -0.024955   
C53      C      0.333551200000     0.223743450000     0.835449515000    -0.024955   
C53      C      0.333551200000     0.723743450000     0.335449515000    -0.024955   
C53      C      0.333551200000     0.723743450000     0.835449515000    -0.024955   
C53      C      0.833551200000     0.223743450000     0.335449515000    -0.024955   
C53      C      0.833551200000     0.223743450000     0.835449515000    -0.024955   
C53      C      0.833551200000     0.723743450000     0.335449515000    -0.024955   
C53      C      0.833551200000     0.723743450000     0.835449515000    -0.024955   
C54      C      0.367159050000     0.127553350000     0.328741600000    -0.025589   
C54      C      0.367159050000     0.127553350000     0.828741600000    -0.025589   
C54      C      0.367159050000     0.627553350000     0.328741600000    -0.025589   
C54      C      0.367159050000     0.627553350000     0.828741600000    -0.025589   
C54      C      0.867159050000     0.127553350000     0.328741600000    -0.025589   
C54      C      0.867159050000     0.127553350000     0.828741600000    -0.025589   
C54      C      0.867159050000     0.627553350000     0.328741600000    -0.025589   
C54      C      0.867159050000     0.627553350000     0.828741600000    -0.025589   
C55      C      0.302717925000     0.121581645000     0.327995800000     0.236814   
C55      C      0.302717925000     0.121581645000     0.827995800000     0.236814   
C55      C      0.302717925000     0.621581645000     0.327995800000     0.236814   
C55      C      0.302717925000     0.621581645000     0.827995800000     0.236814   
C55      C      0.802717925000     0.121581645000     0.327995800000     0.236814   
C55      C      0.802717925000     0.121581645000     0.827995800000     0.236814   
C55      C      0.802717925000     0.621581645000     0.327995800000     0.236814   
C55      C      0.802717925000     0.621581645000     0.827995800000     0.236814   
C56      C      0.414836000000     0.081144320000     0.327623070000     0.03374    
C56      C      0.414836000000     0.081144320000     0.827623070000     0.03374    
C56      C      0.414836000000     0.581144320000     0.327623070000     0.03374    
C56      C      0.414836000000     0.581144320000     0.827623070000     0.03374    
C56      C      0.914836000000     0.081144320000     0.327623070000     0.03374    
C56      C      0.914836000000     0.081144320000     0.827623070000     0.03374    
C56      C      0.914836000000     0.581144320000     0.327623070000     0.03374    
C56      C      0.914836000000     0.581144320000     0.827623070000     0.03374    
C57      C      0.287292200000     0.069324950000     0.326147000000    -0.114097   
C57      C      0.287292200000     0.069324950000     0.826147000000    -0.114097   
C57      C      0.287292200000     0.569324950000     0.326147000000    -0.114097   
C57      C      0.287292200000     0.569324950000     0.826147000000    -0.114097   
C57      C      0.787292200000     0.069324950000     0.326147000000    -0.114097   
C57      C      0.787292200000     0.069324950000     0.826147000000    -0.114097   
C57      C      0.787292200000     0.569324950000     0.326147000000    -0.114097   
C57      C      0.787292200000     0.569324950000     0.826147000000    -0.114097   
C58      C      0.395018150000     0.031078820000     0.337205770000     0.060227   
C58      C      0.395018150000     0.031078820000     0.837205770000     0.060227   
C58      C      0.395018150000     0.531078820000     0.337205770000     0.060227   
C58      C      0.395018150000     0.531078820000     0.837205770000     0.060227   
C58      C      0.895018150000     0.031078820000     0.337205770000     0.060227   
C58      C      0.895018150000     0.031078820000     0.837205770000     0.060227   
C58      C      0.895018150000     0.531078820000     0.337205770000     0.060227   
C58      C      0.895018150000     0.531078820000     0.837205770000     0.060227   
C59      C      0.330588850000     0.025108195000     0.336460100000    -0.064912   
C59      C      0.330588850000     0.025108195000     0.836460100000    -0.064912   
C59      C      0.330588850000     0.525108195000     0.336460100000    -0.064912   
C59      C      0.330588850000     0.525108195000     0.836460100000    -0.064912   
C59      C      0.830588850000     0.025108195000     0.336460100000    -0.064912   
C59      C      0.830588850000     0.025108195000     0.836460100000    -0.064912   
C59      C      0.830588850000     0.525108195000     0.336460100000    -0.064912   
C59      C      0.830588850000     0.525108195000     0.836460100000    -0.064912   
C60      C      0.435954100000     0.488300700000     0.349998450000     0.377037   
C60      C      0.435954100000     0.488300700000     0.849998450000     0.377037   
C60      C      0.435954100000     0.988300700000     0.349998450000     0.377037   
C60      C      0.435954100000     0.988300700000     0.849998450000     0.377037   
C60      C      0.935954100000     0.488300700000     0.349998450000     0.377037   
C60      C      0.935954100000     0.488300700000     0.849998450000     0.377037   
C60      C      0.935954100000     0.988300700000     0.349998450000     0.377037   
C60      C      0.935954100000     0.988300700000     0.849998450000     0.377037   
C61      C      0.310547000000     0.476679325000     0.348547130000     0.005528   
C61      C      0.310547000000     0.476679325000     0.848547130000     0.005528   
C61      C      0.310547000000     0.976679325000     0.348547130000     0.005528   
C61      C      0.310547000000     0.976679325000     0.848547130000     0.005528   
C61      C      0.810547000000     0.476679325000     0.348547130000     0.005528   
C61      C      0.810547000000     0.476679325000     0.848547130000     0.005528   
C61      C      0.810547000000     0.976679325000     0.348547130000     0.005528   
C61      C      0.810547000000     0.976679325000     0.848547130000     0.005528   
C62      C      0.415620300000     0.440132320000     0.359747400000     0.034745   
C62      C      0.415620300000     0.440132320000     0.859747400000     0.034745   
C62      C      0.415620300000     0.940132320000     0.359747400000     0.034745   
C62      C      0.415620300000     0.940132320000     0.859747400000     0.034745   
C62      C      0.915620300000     0.440132320000     0.359747400000     0.034745   
C62      C      0.915620300000     0.440132320000     0.859747400000     0.034745   
C62      C      0.915620300000     0.940132320000     0.359747400000     0.034745   
C62      C      0.915620300000     0.940132320000     0.859747400000     0.034745   
C63      C      0.353057650000     0.434334700000     0.359023400000    -0.076964   
C63      C      0.353057650000     0.434334700000     0.859023400000    -0.076964   
C63      C      0.353057650000     0.934334700000     0.359023400000    -0.076964   
C63      C      0.353057650000     0.934334700000     0.859023400000    -0.076964   
C63      C      0.853057650000     0.434334700000     0.359023400000    -0.076964   
C63      C      0.853057650000     0.434334700000     0.859023400000    -0.076964   
C63      C      0.853057650000     0.934334700000     0.359023400000    -0.076964   
C63      C      0.853057650000     0.934334700000     0.859023400000    -0.076964   
C64      C      0.161093115000     0.215279625000     0.331031600000    -0.112072   
C64      C      0.161093115000     0.215279625000     0.831031600000    -0.112072   
C64      C      0.161093115000     0.715279625000     0.331031600000    -0.112072   
C64      C      0.161093115000     0.715279625000     0.831031600000    -0.112072   
C64      C      0.661093115000     0.215279625000     0.331031600000    -0.112072   
C64      C      0.661093115000     0.215279625000     0.831031600000    -0.112072   
C64      C      0.661093115000     0.715279625000     0.331031600000    -0.112072   
C64      C      0.661093115000     0.715279625000     0.831031600000    -0.112072   
C65      C      0.154823720000     0.245417730000     0.269644750000    -0.060044   
C65      C      0.154823720000     0.245417730000     0.769644750000    -0.060044   
C65      C      0.154823720000     0.745417730000     0.269644750000    -0.060044   
C65      C      0.154823720000     0.745417730000     0.769644750000    -0.060044   
C65      C      0.654823720000     0.245417730000     0.269644750000    -0.060044   
C65      C      0.654823720000     0.245417730000     0.769644750000    -0.060044   
C65      C      0.654823720000     0.745417730000     0.269644750000    -0.060044   
C65      C      0.654823720000     0.745417730000     0.769644750000    -0.060044   
C66      C      0.103402680000     0.338593400000     0.284224950000    -0.075307   
C66      C      0.103402680000     0.338593400000     0.784224950000    -0.075307   
C66      C      0.103402680000     0.838593400000     0.284224950000    -0.075307   
C66      C      0.103402680000     0.838593400000     0.784224950000    -0.075307   
C66      C      0.603402680000     0.338593400000     0.284224950000    -0.075307   
C66      C      0.603402680000     0.338593400000     0.784224950000    -0.075307   
C66      C      0.603402680000     0.838593400000     0.284224950000    -0.075307   
C66      C      0.603402680000     0.838593400000     0.784224950000    -0.075307   
C67      C      0.083361290000     0.362070550000     0.336197375000     0.06348    
C67      C      0.083361290000     0.362070550000     0.836197375000     0.06348    
C67      C      0.083361290000     0.862070550000     0.336197375000     0.06348    
C67      C      0.083361290000     0.862070550000     0.836197375000     0.06348    
C67      C      0.583361290000     0.362070550000     0.336197375000     0.06348    
C67      C      0.583361290000     0.362070550000     0.836197375000     0.06348    
C67      C      0.583361290000     0.862070550000     0.336197375000     0.06348    
C67      C      0.583361290000     0.862070550000     0.836197375000     0.06348    
C68      C      0.110481515000     0.307907650000     0.344433450000    -0.001617   
C68      C      0.110481515000     0.307907650000     0.844433450000    -0.001617   
C68      C      0.110481515000     0.807907650000     0.344433450000    -0.001617   
C68      C      0.110481515000     0.807907650000     0.844433450000    -0.001617   
C68      C      0.610481515000     0.307907650000     0.344433450000    -0.001617   
C68      C      0.610481515000     0.307907650000     0.844433450000    -0.001617   
C68      C      0.610481515000     0.807907650000     0.344433450000    -0.001617   
C68      C      0.610481515000     0.807907650000     0.844433450000    -0.001617   
C69      C      0.099281065000     0.355073630000     0.254396700000    -0.036961   
C69      C      0.099281065000     0.355073630000     0.754396700000    -0.036961   
C69      C      0.099281065000     0.855073630000     0.254396700000    -0.036961   
C69      C      0.099281065000     0.855073630000     0.754396700000    -0.036961   
C69      C      0.599281065000     0.355073630000     0.254396700000    -0.036961   
C69      C      0.599281065000     0.355073630000     0.754396700000    -0.036961   
C69      C      0.599281065000     0.855073630000     0.254396700000    -0.036961   
C69      C      0.599281065000     0.855073630000     0.754396700000    -0.036961   
C70      C      0.059605540000     0.401241870000     0.358979800000    -0.019484   
C70      C      0.059605540000     0.401241870000     0.858979800000    -0.019484   
C70      C      0.059605540000     0.901241870000     0.358979800000    -0.019484   
C70      C      0.059605540000     0.901241870000     0.858979800000    -0.019484   
C70      C      0.559605540000     0.401241870000     0.358979800000    -0.019484   
C70      C      0.559605540000     0.401241870000     0.858979800000    -0.019484   
C70      C      0.559605540000     0.901241870000     0.358979800000    -0.019484   
C70      C      0.559605540000     0.901241870000     0.858979800000    -0.019484   
C71      C      0.134390050000     0.269048630000     0.322544400000    -0.074402   
C71      C      0.134390050000     0.269048630000     0.822544400000    -0.074402   
C71      C      0.134390050000     0.769048630000     0.322544400000    -0.074402   
C71      C      0.134390050000     0.769048630000     0.822544400000    -0.074402   
C71      C      0.634390050000     0.269048630000     0.322544400000    -0.074402   
C71      C      0.634390050000     0.269048630000     0.822544400000    -0.074402   
C71      C      0.634390050000     0.769048630000     0.322544400000    -0.074402   
C71      C      0.634390050000     0.769048630000     0.822544400000    -0.074402   
C72      C      0.072502175000     0.408488800000     0.246001870000    -0.020544   
C72      C      0.072502175000     0.408488800000     0.746001870000    -0.020544   
C72      C      0.072502175000     0.908488800000     0.246001870000    -0.020544   
C72      C      0.072502175000     0.908488800000     0.746001870000    -0.020544   
C72      C      0.572502175000     0.408488800000     0.246001870000    -0.020544   
C72      C      0.572502175000     0.408488800000     0.746001870000    -0.020544   
C72      C      0.572502175000     0.908488800000     0.246001870000    -0.020544   
C72      C      0.572502175000     0.908488800000     0.746001870000    -0.020544   
C73      C      0.130676435000     0.284455200000     0.292452450000    -0.002307   
C73      C      0.130676435000     0.284455200000     0.792452450000    -0.002307   
C73      C      0.130676435000     0.784455200000     0.292452450000    -0.002307   
C73      C      0.130676435000     0.784455200000     0.792452450000    -0.002307   
C73      C      0.630676435000     0.284455200000     0.292452450000    -0.002307   
C73      C      0.630676435000     0.284455200000     0.792452450000    -0.002307   
C73      C      0.630676435000     0.784455200000     0.292452450000    -0.002307   
C73      C      0.630676435000     0.784455200000     0.792452450000    -0.002307   
C74      C      0.049245140000     0.446732820000     0.267652480000    -0.512981   
C74      C      0.049245140000     0.446732820000     0.767652480000    -0.512981   
C74      C      0.049245140000     0.946732820000     0.267652480000    -0.512981   
C74      C      0.049245140000     0.946732820000     0.767652480000    -0.512981   
C74      C      0.549245140000     0.446732820000     0.267652480000    -0.512981   
C74      C      0.549245140000     0.446732820000     0.767652480000    -0.512981   
C74      C      0.549245140000     0.946732820000     0.267652480000    -0.512981   
C74      C      0.549245140000     0.946732820000     0.767652480000    -0.512981   
C75      C      0.114878135000     0.291545650000     0.374267350000    -0.015349   
C75      C      0.114878135000     0.291545650000     0.874267350000    -0.015349   
C75      C      0.114878135000     0.791545650000     0.374267350000    -0.015349   
C75      C      0.114878135000     0.791545650000     0.874267350000    -0.015349   
C75      C      0.614878135000     0.291545650000     0.374267350000    -0.015349   
C75      C      0.614878135000     0.291545650000     0.874267350000    -0.015349   
C75      C      0.614878135000     0.791545650000     0.374267350000    -0.015349   
C75      C      0.614878135000     0.791545650000     0.874267350000    -0.015349   
C76      C      0.052917255000     0.431187570000     0.297605000000     0.226877   
C76      C      0.052917255000     0.431187570000     0.797605000000     0.226877   
C76      C      0.052917255000     0.931187570000     0.297605000000     0.226877   
C76      C      0.052917255000     0.931187570000     0.797605000000     0.226877   
C76      C      0.552917255000     0.431187570000     0.297605000000     0.226877   
C76      C      0.552917255000     0.431187570000     0.797605000000     0.226877   
C76      C      0.552917255000     0.931187570000     0.297605000000     0.226877   
C76      C      0.552917255000     0.931187570000     0.797605000000     0.226877   
C77      C      0.079908585000     0.377540300000     0.306097270000     0.005617   
C77      C      0.079908585000     0.377540300000     0.806097270000     0.005617   
C77      C      0.079908585000     0.877540300000     0.306097270000     0.005617   
C77      C      0.079908585000     0.877540300000     0.806097270000     0.005617   
C77      C      0.579908585000     0.377540300000     0.306097270000     0.005617   
C77      C      0.579908585000     0.377540300000     0.806097270000     0.005617   
C77      C      0.579908585000     0.877540300000     0.306097270000     0.005617   
C77      C      0.579908585000     0.877540300000     0.806097270000     0.005617   
C78      C      0.141581340000     0.238062800000     0.382652550000    -0.160747   
C78      C      0.141581340000     0.238062800000     0.882652550000    -0.160747   
C78      C      0.141581340000     0.738062800000     0.382652550000    -0.160747   
C78      C      0.141581340000     0.738062800000     0.882652550000    -0.160747   
C78      C      0.641581340000     0.238062800000     0.382652550000    -0.160747   
C78      C      0.641581340000     0.238062800000     0.882652550000    -0.160747   
C78      C      0.641581340000     0.738062800000     0.382652550000    -0.160747   
C78      C      0.641581340000     0.738062800000     0.882652550000    -0.160747   
C79      C      0.164876000000     0.199806350000     0.360994800000    -0.074356   
C79      C      0.164876000000     0.199806350000     0.860994800000    -0.074356   
C79      C      0.164876000000     0.699806350000     0.360994800000    -0.074356   
C79      C      0.164876000000     0.699806350000     0.860994800000    -0.074356   
C79      C      0.664876000000     0.199806350000     0.360994800000    -0.074356   
C79      C      0.664876000000     0.199806350000     0.860994800000    -0.074356   
C79      C      0.664876000000     0.699806350000     0.360994800000    -0.074356   
C79      C      0.664876000000     0.699806350000     0.860994800000    -0.074356   
C80      C      0.178160890000     0.496539200000     0.180595680000     0.122537   
C80      C      0.178160890000     0.496539200000     0.680595680000     0.122537   
C80      C      0.178160890000     0.996539200000     0.180595680000     0.122537   
C80      C      0.178160890000     0.996539200000     0.680595680000     0.122537   
C80      C      0.678160890000     0.496539200000     0.180595680000     0.122537   
C80      C      0.678160890000     0.496539200000     0.680595680000     0.122537   
C80      C      0.678160890000     0.996539200000     0.180595680000     0.122537   
C80      C      0.678160890000     0.996539200000     0.680595680000     0.122537   
C81      C      0.152793300000     0.120739265000     0.438430150000     0.113611   
C81      C      0.152793300000     0.120739265000     0.938430150000     0.113611   
C81      C      0.152793300000     0.620739265000     0.438430150000     0.113611   
C81      C      0.152793300000     0.620739265000     0.938430150000     0.113611   
C81      C      0.652793300000     0.120739265000     0.438430150000     0.113611   
C81      C      0.652793300000     0.120739265000     0.938430150000     0.113611   
C81      C      0.652793300000     0.620739265000     0.438430150000     0.113611   
C81      C      0.652793300000     0.620739265000     0.938430150000     0.113611   
C82      C      0.176475165000     0.489744950000     0.210696340000     0.907463   
C82      C      0.176475165000     0.489744950000     0.710696340000     0.907463   
C82      C      0.176475165000     0.989744950000     0.210696340000     0.907463   
C82      C      0.176475165000     0.989744950000     0.710696340000     0.907463   
C82      C      0.676475165000     0.489744950000     0.210696340000     0.907463   
C82      C      0.676475165000     0.489744950000     0.710696340000     0.907463   
C82      C      0.676475165000     0.989744950000     0.210696340000     0.907463   
C82      C      0.676475165000     0.989744950000     0.710696340000     0.907463   
C83      C      0.142675310000     0.130330665000     0.409315375000    -0.029112   
C83      C      0.142675310000     0.130330665000     0.909315375000    -0.029112   
C83      C      0.142675310000     0.630330665000     0.409315375000    -0.029112   
C83      C      0.142675310000     0.630330665000     0.909315375000    -0.029112   
C83      C      0.642675310000     0.130330665000     0.409315375000    -0.029112   
C83      C      0.642675310000     0.130330665000     0.909315375000    -0.029112   
C83      C      0.642675310000     0.630330665000     0.409315375000    -0.029112   
C83      C      0.642675310000     0.630330665000     0.909315375000    -0.029112   
C84      C      0.132776560000     0.023738445000     0.228775000000     0.001346   
C84      C      0.132776560000     0.023738445000     0.728775000000     0.001346   
C84      C      0.132776560000     0.523738445000     0.228775000000     0.001346   
C84      C      0.132776560000     0.523738445000     0.728775000000     0.001346   
C84      C      0.632776560000     0.023738445000     0.228775000000     0.001346   
C84      C      0.632776560000     0.023738445000     0.728775000000     0.001346   
C84      C      0.632776560000     0.523738445000     0.228775000000     0.001346   
C84      C      0.632776560000     0.523738445000     0.728775000000     0.001346   
C85      C      0.086719090000     0.119941080000     0.399607850000     0.195887   
C85      C      0.086719090000     0.119941080000     0.899607850000     0.195887   
C85      C      0.086719090000     0.619941080000     0.399607850000     0.195887   
C85      C      0.086719090000     0.619941080000     0.899607850000     0.195887   
C85      C      0.586719090000     0.119941080000     0.399607850000     0.195887   
C85      C      0.586719090000     0.119941080000     0.899607850000     0.195887   
C85      C      0.586719090000     0.619941080000     0.399607850000     0.195887   
C85      C      0.586719090000     0.619941080000     0.899607850000     0.195887   
C86      C      0.089861870000     0.063937605000     0.216151715000    -0.007319   
C86      C      0.089861870000     0.063937605000     0.716151715000    -0.007319   
C86      C      0.089861870000     0.563937605000     0.216151715000    -0.007319   
C86      C      0.089861870000     0.563937605000     0.716151715000    -0.007319   
C86      C      0.589861870000     0.063937605000     0.216151715000    -0.007319   
C86      C      0.589861870000     0.063937605000     0.716151715000    -0.007319   
C86      C      0.589861870000     0.563937605000     0.216151715000    -0.007319   
C86      C      0.589861870000     0.563937605000     0.716151715000    -0.007319   
C87      C      0.040468695000     0.100862385000     0.419716475000     0.090072   
C87      C      0.040468695000     0.100862385000     0.919716475000     0.090072   
C87      C      0.040468695000     0.600862385000     0.419716475000     0.090072   
C87      C      0.040468695000     0.600862385000     0.919716475000     0.090072   
C87      C      0.540468695000     0.100862385000     0.419716475000     0.090072   
C87      C      0.540468695000     0.100862385000     0.919716475000     0.090072   
C87      C      0.540468695000     0.600862385000     0.419716475000     0.090072   
C87      C      0.540468695000     0.600862385000     0.919716475000     0.090072   
C88      C      0.090010955000     0.069493780000     0.186040910000     0.021221   
C88      C      0.090010955000     0.069493780000     0.686040910000     0.021221   
C88      C      0.090010955000     0.569493780000     0.186040910000     0.021221   
C88      C      0.090010955000     0.569493780000     0.686040910000     0.021221   
C88      C      0.590010955000     0.069493780000     0.186040910000     0.021221   
C88      C      0.590010955000     0.069493780000     0.686040910000     0.021221   
C88      C      0.590010955000     0.569493780000     0.186040910000     0.021221   
C88      C      0.590010955000     0.569493780000     0.686040910000     0.021221   
C89      C      0.049574905000     0.093113915000     0.449050350000    -0.07633    
C89      C      0.049574905000     0.093113915000     0.949050350000    -0.07633    
C89      C      0.049574905000     0.593113915000     0.449050350000    -0.07633    
C89      C      0.049574905000     0.593113915000     0.949050350000    -0.07633    
C89      C      0.549574905000     0.093113915000     0.449050350000    -0.07633    
C89      C      0.549574905000     0.093113915000     0.949050350000    -0.07633    
C89      C      0.549574905000     0.593113915000     0.449050350000    -0.07633    
C89      C      0.549574905000     0.593113915000     0.949050350000    -0.07633    
C90      C      0.134808800000     0.036376565000     0.168019740000    -0.025628   
C90      C      0.134808800000     0.036376565000     0.668019740000    -0.025628   
C90      C      0.134808800000     0.536376565000     0.168019740000    -0.025628   
C90      C      0.134808800000     0.536376565000     0.668019740000    -0.025628   
C90      C      0.634808800000     0.036376565000     0.168019740000    -0.025628   
C90      C      0.634808800000     0.036376565000     0.668019740000    -0.025628   
C90      C      0.634808800000     0.536376565000     0.168019740000    -0.025628   
C90      C      0.634808800000     0.536376565000     0.668019740000    -0.025628   
C91      C      0.106235275000     0.102206385000     0.458554650000     0.067522   
C91      C      0.106235275000     0.102206385000     0.958554650000     0.067522   
C91      C      0.106235275000     0.602206385000     0.458554650000     0.067522   
C91      C      0.106235275000     0.602206385000     0.958554650000     0.067522   
C91      C      0.606235275000     0.102206385000     0.458554650000     0.067522   
C91      C      0.606235275000     0.102206385000     0.958554650000     0.067522   
C91      C      0.606235275000     0.602206385000     0.458554650000     0.067522   
C91      C      0.606235275000     0.602206385000     0.958554650000     0.067522   
C92      C      0.135345175000     0.018039080000     0.260401875000     0.012792   
C92      C      0.135345175000     0.018039080000     0.760401875000     0.012792   
C92      C      0.135345175000     0.518039080000     0.260401875000     0.012792   
C92      C      0.135345175000     0.518039080000     0.760401875000     0.012792   
C92      C      0.635345175000     0.018039080000     0.260401875000     0.012792   
C92      C      0.635345175000     0.018039080000     0.760401875000     0.012792   
C92      C      0.635345175000     0.518039080000     0.260401875000     0.012792   
C92      C      0.635345175000     0.518039080000     0.760401875000     0.012792   
C93      C      0.079552850000     0.126729535000     0.368366900000    -0.08915    
C93      C      0.079552850000     0.126729535000     0.868366900000    -0.08915    
C93      C      0.079552850000     0.626729535000     0.368366900000    -0.08915    
C93      C      0.079552850000     0.626729535000     0.868366900000    -0.08915    
C93      C      0.579552850000     0.126729535000     0.368366900000    -0.08915    
C93      C      0.579552850000     0.126729535000     0.868366900000    -0.08915    
C93      C      0.579552850000     0.626729535000     0.368366900000    -0.08915    
C93      C      0.579552850000     0.626729535000     0.868366900000    -0.08915    
C94      C      0.116905095000     0.040567185000     0.000619745000    -0.013682   
C94      C      0.116905095000     0.040567185000     0.500619745000    -0.013682   
C94      C      0.116905095000     0.540567185000     0.000619745000    -0.013682   
C94      C      0.116905095000     0.540567185000     0.500619745000    -0.013682   
C94      C      0.616905095000     0.040567185000     0.000619745000    -0.013682   
C94      C      0.616905095000     0.040567185000     0.500619745000    -0.013682   
C94      C      0.616905095000     0.540567185000     0.000619745000    -0.013682   
C94      C      0.616905095000     0.540567185000     0.500619745000    -0.013682   
C95      C      0.148156510000     0.092326760000     0.123938420000     0.015515   
C95      C      0.148156510000     0.092326760000     0.623938420000     0.015515   
C95      C      0.148156510000     0.592326760000     0.123938420000     0.015515   
C95      C      0.148156510000     0.592326760000     0.623938420000     0.015515   
C95      C      0.648156510000     0.092326760000     0.123938420000     0.015515   
C95      C      0.648156510000     0.092326760000     0.623938420000     0.015515   
C95      C      0.648156510000     0.592326760000     0.123938420000     0.015515   
C95      C      0.648156510000     0.592326760000     0.623938420000     0.015515   
C96      C      0.128470940000     0.131929860000     0.004261255000     0.044921   
C96      C      0.128470940000     0.131929860000     0.504261255000     0.044921   
C96      C      0.128470940000     0.631929860000     0.004261255000     0.044921   
C96      C      0.128470940000     0.631929860000     0.504261255000     0.044921   
C96      C      0.628470940000     0.131929860000     0.004261255000     0.044921   
C96      C      0.628470940000     0.131929860000     0.504261255000     0.044921   
C96      C      0.628470940000     0.631929860000     0.004261255000     0.044921   
C96      C      0.628470940000     0.631929860000     0.504261255000     0.044921   
C97      C      0.129607050000     0.002610685000     0.120882550000     0.019932   
C97      C      0.129607050000     0.002610685000     0.620882550000     0.019932   
C97      C      0.129607050000     0.502610685000     0.120882550000     0.019932   
C97      C      0.129607050000     0.502610685000     0.620882550000     0.019932   
C97      C      0.629607050000     0.002610685000     0.120882550000     0.019932   
C97      C      0.629607050000     0.002610685000     0.620882550000     0.019932   
C97      C      0.629607050000     0.502610685000     0.120882550000     0.019932   
C97      C      0.629607050000     0.502610685000     0.620882550000     0.019932   
C98      C      0.136860950000     0.123093130000     0.034173200000    -0.048918   
C98      C      0.136860950000     0.123093130000     0.534173200000    -0.048918   
C98      C      0.136860950000     0.623093130000     0.034173200000    -0.048918   
C98      C      0.136860950000     0.623093130000     0.534173200000    -0.048918   
C98      C      0.636860950000     0.123093130000     0.034173200000    -0.048918   
C98      C      0.636860950000     0.123093130000     0.534173200000    -0.048918   
C98      C      0.636860950000     0.623093130000     0.034173200000    -0.048918   
C98      C      0.636860950000     0.623093130000     0.534173200000    -0.048918   
C99      C      0.129237265000     0.009547675000     0.090297355000    -0.144187   
C99      C      0.129237265000     0.009547675000     0.590297355000    -0.144187   
C99      C      0.129237265000     0.509547675000     0.090297355000    -0.144187   
C99      C      0.129237265000     0.509547675000     0.590297355000    -0.144187   
C99      C      0.629237265000     0.009547675000     0.090297355000    -0.144187   
C99      C      0.629237265000     0.009547675000     0.590297355000    -0.144187   
C99      C      0.629237265000     0.509547675000     0.090297355000    -0.144187   
C99      C      0.629237265000     0.509547675000     0.590297355000    -0.144187   
C100     C      0.136413335000     0.070267350000     0.046741335000    -0.06447    
C100     C      0.136413335000     0.070267350000     0.546741335000    -0.06447    
C100     C      0.136413335000     0.570267350000     0.046741335000    -0.06447    
C100     C      0.136413335000     0.570267350000     0.546741335000    -0.06447    
C100     C      0.636413335000     0.070267350000     0.046741335000    -0.06447    
C100     C      0.636413335000     0.070267350000     0.546741335000    -0.06447    
C100     C      0.636413335000     0.570267350000     0.046741335000    -0.06447    
C100     C      0.636413335000     0.570267350000     0.546741335000    -0.06447    
C101     C      0.140364615000     0.059852565000     0.076828105000    -0.079883   
C101     C      0.140364615000     0.059852565000     0.576828105000    -0.079883   
C101     C      0.140364615000     0.559852565000     0.076828105000    -0.079883   
C101     C      0.140364615000     0.559852565000     0.576828105000    -0.079883   
C101     C      0.640364615000     0.059852565000     0.076828105000    -0.079883   
C101     C      0.640364615000     0.059852565000     0.576828105000    -0.079883   
C101     C      0.640364615000     0.559852565000     0.076828105000    -0.079883   
C101     C      0.640364615000     0.559852565000     0.576828105000    -0.079883   
C102     C      0.130426185000     0.028016750000     0.029484185000    -0.067134   
C102     C      0.130426185000     0.028016750000     0.529484185000    -0.067134   
C102     C      0.130426185000     0.528016750000     0.029484185000    -0.067134   
C102     C      0.130426185000     0.528016750000     0.529484185000    -0.067134   
C102     C      0.630426185000     0.028016750000     0.029484185000    -0.067134   
C102     C      0.630426185000     0.028016750000     0.529484185000    -0.067134   
C102     C      0.630426185000     0.528016750000     0.029484185000    -0.067134   
C102     C      0.630426185000     0.528016750000     0.529484185000    -0.067134   
C103     C      0.153882460000     0.100310610000     0.093457540000    -0.142585   
C103     C      0.153882460000     0.100310610000     0.593457540000    -0.142585   
C103     C      0.153882460000     0.600310610000     0.093457540000    -0.142585   
C103     C      0.153882460000     0.600310610000     0.593457540000    -0.142585   
C103     C      0.653882460000     0.100310610000     0.093457540000    -0.142585   
C103     C      0.653882460000     0.100310610000     0.593457540000    -0.142585   
C103     C      0.653882460000     0.600310610000     0.093457540000    -0.142585   
C103     C      0.653882460000     0.600310610000     0.593457540000    -0.142585   
C104     C      0.147833300000     0.164125850000     0.051779015000    -0.055348   
C104     C      0.147833300000     0.164125850000     0.551779015000    -0.055348   
C104     C      0.147833300000     0.664125850000     0.051779015000    -0.055348   
C104     C      0.147833300000     0.664125850000     0.551779015000    -0.055348   
C104     C      0.647833300000     0.164125850000     0.051779015000    -0.055348   
C104     C      0.647833300000     0.164125850000     0.551779015000    -0.055348   
C104     C      0.647833300000     0.664125850000     0.051779015000    -0.055348   
C104     C      0.647833300000     0.664125850000     0.551779015000    -0.055348   
C105     C      0.120443610000     0.467998920000     0.072508575000    -0.144837   
C105     C      0.120443610000     0.467998920000     0.572508575000    -0.144837   
C105     C      0.120443610000     0.967998920000     0.072508575000    -0.144837   
C105     C      0.120443610000     0.967998920000     0.572508575000    -0.144837   
C105     C      0.620443610000     0.467998920000     0.072508575000    -0.144837   
C105     C      0.620443610000     0.467998920000     0.572508575000    -0.144837   
C105     C      0.620443610000     0.967998920000     0.072508575000    -0.144837   
C105     C      0.620443610000     0.967998920000     0.572508575000    -0.144837   
C106     C      0.169081000000     0.148740900000     0.079291985000    -0.078851   
C106     C      0.169081000000     0.148740900000     0.579291985000    -0.078851   
C106     C      0.169081000000     0.648740900000     0.079291985000    -0.078851   
C106     C      0.169081000000     0.648740900000     0.579291985000    -0.078851   
C106     C      0.669081000000     0.148740900000     0.079291985000    -0.078851   
C106     C      0.669081000000     0.148740900000     0.579291985000    -0.078851   
C106     C      0.669081000000     0.648740900000     0.079291985000    -0.078851   
C106     C      0.669081000000     0.648740900000     0.579291985000    -0.078851   
C107     C      0.134450270000     0.475033200000     0.042036035000    -0.158746   
C107     C      0.134450270000     0.475033200000     0.542036035000    -0.158746   
C107     C      0.134450270000     0.975033200000     0.042036035000    -0.158746   
C107     C      0.134450270000     0.975033200000     0.542036035000    -0.158746   
C107     C      0.634450270000     0.475033200000     0.042036035000    -0.158746   
C107     C      0.634450270000     0.475033200000     0.542036035000    -0.158746   
C107     C      0.634450270000     0.975033200000     0.042036035000    -0.158746   
C107     C      0.634450270000     0.975033200000     0.542036035000    -0.158746   
C108     C      0.132677420000     0.223986150000     0.043331650000    -1.10607    
C108     C      0.132677420000     0.223986150000     0.543331650000    -1.10607    
C108     C      0.132677420000     0.723986150000     0.043331650000    -1.10607    
C108     C      0.132677420000     0.723986150000     0.543331650000    -1.10607    
C108     C      0.632677420000     0.223986150000     0.043331650000    -1.10607    
C108     C      0.632677420000     0.223986150000     0.543331650000    -1.10607    
C108     C      0.632677420000     0.723986150000     0.043331650000    -1.10607    
C108     C      0.632677420000     0.723986150000     0.543331650000    -1.10607    
C109     C      0.061446430000     0.241835430000     0.042264795000    -0.462165   
C109     C      0.061446430000     0.241835430000     0.542264795000    -0.462165   
C109     C      0.061446430000     0.741835430000     0.042264795000    -0.462165   
C109     C      0.061446430000     0.741835430000     0.542264795000    -0.462165   
C109     C      0.561446430000     0.241835430000     0.042264795000    -0.462165   
C109     C      0.561446430000     0.241835430000     0.542264795000    -0.462165   
C109     C      0.561446430000     0.741835430000     0.042264795000    -0.462165   
C109     C      0.561446430000     0.741835430000     0.542264795000    -0.462165   
C110     C      0.091698935000     0.418537320000     0.084641390000    -1.42226    
C110     C      0.091698935000     0.418537320000     0.584641390000    -1.42226    
C110     C      0.091698935000     0.918537320000     0.084641390000    -1.42226    
C110     C      0.091698935000     0.918537320000     0.584641390000    -1.42226    
C110     C      0.591698935000     0.418537320000     0.084641390000    -1.42226    
C110     C      0.591698935000     0.418537320000     0.584641390000    -1.42226    
C110     C      0.591698935000     0.918537320000     0.084641390000    -1.42226    
C110     C      0.591698935000     0.918537320000     0.584641390000    -1.42226    
C111     C      0.022667565000     0.433911850000     0.097483270000    -0.35836    
C111     C      0.022667565000     0.433911850000     0.597483270000    -0.35836    
C111     C      0.022667565000     0.933911850000     0.097483270000    -0.35836    
C111     C      0.022667565000     0.933911850000     0.597483270000    -0.35836    
C111     C      0.522667565000     0.433911850000     0.097483270000    -0.35836    
C111     C      0.522667565000     0.433911850000     0.597483270000    -0.35836    
C111     C      0.522667565000     0.933911850000     0.097483270000    -0.35836    
C111     C      0.522667565000     0.933911850000     0.597483270000    -0.35836    
C112     C      0.213991390000     0.180187200000     0.091619030000    -0.266241   
C112     C      0.213991390000     0.180187200000     0.591619030000    -0.266241   
C112     C      0.213991390000     0.680187200000     0.091619030000    -0.266241   
C112     C      0.213991390000     0.680187200000     0.591619030000    -0.266241   
C112     C      0.713991390000     0.180187200000     0.091619030000    -0.266241   
C112     C      0.713991390000     0.180187200000     0.591619030000    -0.266241   
C112     C      0.713991390000     0.680187200000     0.091619030000    -0.266241   
C112     C      0.713991390000     0.680187200000     0.591619030000    -0.266241   
C113     C      0.271096950000     0.188604190000     0.069690280000    -0.253897   
C113     C      0.271096950000     0.188604190000     0.569690280000    -0.253897   
C113     C      0.271096950000     0.688604190000     0.069690280000    -0.253897   
C113     C      0.271096950000     0.688604190000     0.569690280000    -0.253897   
C113     C      0.771096950000     0.188604190000     0.069690280000    -0.253897   
C113     C      0.771096950000     0.188604190000     0.569690280000    -0.253897   
C113     C      0.771096950000     0.688604190000     0.069690280000    -0.253897   
C113     C      0.771096950000     0.688604190000     0.569690280000    -0.253897   
C114     C      0.160923435000     0.426678330000     0.023716335000    -0.265484   
C114     C      0.160923435000     0.426678330000     0.523716335000    -0.265484   
C114     C      0.160923435000     0.926678330000     0.023716335000    -0.265484   
C114     C      0.160923435000     0.926678330000     0.523716335000    -0.265484   
C114     C      0.660923435000     0.426678330000     0.023716335000    -0.265484   
C114     C      0.660923435000     0.426678330000     0.523716335000    -0.265484   
C114     C      0.660923435000     0.926678330000     0.023716335000    -0.265484   
C114     C      0.660923435000     0.926678330000     0.523716335000    -0.265484   
C115     C      0.217455625000     0.391352900000     0.036100710000    -0.547203   
C115     C      0.217455625000     0.391352900000     0.536100710000    -0.547203   
C115     C      0.217455625000     0.891352900000     0.036100710000    -0.547203   
C115     C      0.217455625000     0.891352900000     0.536100710000    -0.547203   
C115     C      0.717455625000     0.391352900000     0.036100710000    -0.547203   
C115     C      0.717455625000     0.391352900000     0.536100710000    -0.547203   
C115     C      0.717455625000     0.891352900000     0.036100710000    -0.547203   
C115     C      0.717455625000     0.891352900000     0.536100710000    -0.547203   
N116     N      0.117252700000     0.091356455000     0.488577950000    -0.366527   
N116     N      0.117252700000     0.091356455000     0.988577950000    -0.366527   
N116     N      0.117252700000     0.591356455000     0.488577950000    -0.366527   
N116     N      0.117252700000     0.591356455000     0.988577950000    -0.366527   
N116     N      0.617252700000     0.091356455000     0.488577950000    -0.366527   
N116     N      0.617252700000     0.091356455000     0.988577950000    -0.366527   
N116     N      0.617252700000     0.591356455000     0.488577950000    -0.366527   
N116     N      0.617252700000     0.591356455000     0.988577950000    -0.366527   
N117     N      0.137359950000     0.044004950000     0.136856780000    -0.592767   
N117     N      0.137359950000     0.044004950000     0.636856780000    -0.592767   
N117     N      0.137359950000     0.544004950000     0.136856780000    -0.592767   
N117     N      0.137359950000     0.544004950000     0.636856780000    -0.592767   
N117     N      0.637359950000     0.044004950000     0.136856780000    -0.592767   
N117     N      0.637359950000     0.044004950000     0.636856780000    -0.592767   
N117     N      0.637359950000     0.544004950000     0.136856780000    -0.592767   
N117     N      0.637359950000     0.544004950000     0.636856780000    -0.592767   
O118     O      0.210866300000     0.014495105000     0.316638300000    -0.352213   
O118     O      0.210866300000     0.014495105000     0.816638300000    -0.352213   
O118     O      0.210866300000     0.514495105000     0.316638300000    -0.352213   
O118     O      0.210866300000     0.514495105000     0.816638300000    -0.352213   
O118     O      0.710866300000     0.014495105000     0.316638300000    -0.352213   
O118     O      0.710866300000     0.014495105000     0.816638300000    -0.352213   
O118     O      0.710866300000     0.514495105000     0.316638300000    -0.352213   
O118     O      0.710866300000     0.514495105000     0.816638300000    -0.352213   
O119     O      0.025968970000     0.043695395000     0.320284935000    -1.88534    
O119     O      0.025968970000     0.043695395000     0.820284935000    -1.88534    
O119     O      0.025968970000     0.543695395000     0.320284935000    -1.88534    
O119     O      0.025968970000     0.543695395000     0.820284935000    -1.88534    
O119     O      0.525968970000     0.043695395000     0.320284935000    -1.88534    
O119     O      0.525968970000     0.043695395000     0.820284935000    -1.88534    
O119     O      0.525968970000     0.543695395000     0.320284935000    -1.88534    
O119     O      0.525968970000     0.543695395000     0.820284935000    -1.88534    
O120     O      0.186124370000     0.101483725000     0.307856650000    -0.133117   
O120     O      0.186124370000     0.101483725000     0.807856650000    -0.133117   
O120     O      0.186124370000     0.601483725000     0.307856650000    -0.133117   
O120     O      0.186124370000     0.601483725000     0.807856650000    -0.133117   
O120     O      0.686124370000     0.101483725000     0.307856650000    -0.133117   
O120     O      0.686124370000     0.101483725000     0.807856650000    -0.133117   
O120     O      0.686124370000     0.601483725000     0.307856650000    -0.133117   
O120     O      0.686124370000     0.601483725000     0.807856650000    -0.133117   
O121     O      0.001203535000     0.130681855000     0.311503000000    -0.202445   
O121     O      0.001203535000     0.130681855000     0.811503000000    -0.202445   
O121     O      0.001203535000     0.630681855000     0.311503000000    -0.202445   
O121     O      0.001203535000     0.630681855000     0.811503000000    -0.202445   
O121     O      0.501203535000     0.130681855000     0.311503000000    -0.202445   
O121     O      0.501203535000     0.130681855000     0.811503000000    -0.202445   
O121     O      0.501203535000     0.630681855000     0.311503000000    -0.202445   
O121     O      0.501203535000     0.630681855000     0.811503000000    -0.202445   
O122     O      0.209278465000     0.214687080000     0.271986785000    -0.141318   
O122     O      0.209278465000     0.214687080000     0.771986785000    -0.141318   
O122     O      0.209278465000     0.714687080000     0.271986785000    -0.141318   
O122     O      0.209278465000     0.714687080000     0.771986785000    -0.141318   
O122     O      0.709278465000     0.214687080000     0.271986785000    -0.141318   
O122     O      0.709278465000     0.214687080000     0.771986785000    -0.141318   
O122     O      0.709278465000     0.714687080000     0.271986785000    -0.141318   
O122     O      0.709278465000     0.714687080000     0.771986785000    -0.141318   
O123     O      0.120389135000     0.242354950000     0.249655750000    -0.153133   
O123     O      0.120389135000     0.242354950000     0.749655750000    -0.153133   
O123     O      0.120389135000     0.742354950000     0.249655750000    -0.153133   
O123     O      0.120389135000     0.742354950000     0.749655750000    -0.153133   
O123     O      0.620389135000     0.242354950000     0.249655750000    -0.153133   
O123     O      0.620389135000     0.242354950000     0.749655750000    -0.153133   
O123     O      0.620389135000     0.742354950000     0.249655750000    -0.153133   
O123     O      0.620389135000     0.742354950000     0.749655750000    -0.153133   
O124     O      0.025016680000     0.386248530000     0.381773470000    -0.64427    
O124     O      0.025016680000     0.386248530000     0.881773470000    -0.64427    
O124     O      0.025016680000     0.886248530000     0.381773470000    -0.64427    
O124     O      0.025016680000     0.886248530000     0.881773470000    -0.64427    
O124     O      0.525016680000     0.386248530000     0.381773470000    -0.64427    
O124     O      0.525016680000     0.386248530000     0.881773470000    -0.64427    
O124     O      0.525016680000     0.886248530000     0.381773470000    -0.64427    
O124     O      0.525016680000     0.886248530000     0.881773470000    -0.64427    
O125     O      0.073530350000     0.449793600000     0.353842650000     1.49281    
O125     O      0.073530350000     0.449793600000     0.853842650000     1.49281    
O125     O      0.073530350000     0.949793600000     0.353842650000     1.49281    
O125     O      0.073530350000     0.949793600000     0.853842650000     1.49281    
O125     O      0.573530350000     0.449793600000     0.353842650000     1.49281    
O125     O      0.573530350000     0.449793600000     0.853842650000     1.49281    
O125     O      0.573530350000     0.949793600000     0.353842650000     1.49281    
O125     O      0.573530350000     0.949793600000     0.853842650000     1.49281    
O126     O      0.190206990000     0.002042180000     0.269498615000     1.83479    
O126     O      0.190206990000     0.002042180000     0.769498615000     1.83479    
O126     O      0.190206990000     0.502042180000     0.269498615000     1.83479    
O126     O      0.190206990000     0.502042180000     0.769498615000     1.83479    
O126     O      0.690206990000     0.002042180000     0.269498615000     1.83479    
O126     O      0.690206990000     0.002042180000     0.769498615000     1.83479    
O126     O      0.690206990000     0.502042180000     0.269498615000     1.83479    
O126     O      0.690206990000     0.502042180000     0.769498615000     1.83479    
O127     O      0.024159200000     0.142852365000     0.359314770000     1.30881    
O127     O      0.024159200000     0.142852365000     0.859314770000     1.30881    
O127     O      0.024159200000     0.642852365000     0.359314770000     1.30881    
O127     O      0.024159200000     0.642852365000     0.859314770000     1.30881    
O127     O      0.524159200000     0.142852365000     0.359314770000     1.30881    
O127     O      0.524159200000     0.142852365000     0.859314770000     1.30881    
O127     O      0.524159200000     0.642852365000     0.359314770000     1.30881    
O127     O      0.524159200000     0.642852365000     0.859314770000     1.30881    
O128     O      0.130471065000     0.117670370000     0.350389900000     1.53139    
O128     O      0.130471065000     0.117670370000     0.850389900000     1.53139    
O128     O      0.130471065000     0.617670370000     0.350389900000     1.53139    
O128     O      0.130471065000     0.617670370000     0.850389900000     1.53139    
O128     O      0.630471065000     0.117670370000     0.350389900000     1.53139    
O128     O      0.630471065000     0.117670370000     0.850389900000     1.53139    
O128     O      0.630471065000     0.617670370000     0.350389900000     1.53139    
O128     O      0.630471065000     0.617670370000     0.850389900000     1.53139    
O129     O      0.083895115000     0.027224175000     0.278423500000     0.045741   
O129     O      0.083895115000     0.027224175000     0.778423500000     0.045741   
O129     O      0.083895115000     0.527224175000     0.278423500000     0.045741   
O129     O      0.083895115000     0.527224175000     0.778423500000     0.045741   
O129     O      0.583895115000     0.027224175000     0.278423500000     0.045741   
O129     O      0.583895115000     0.027224175000     0.778423500000     0.045741   
O129     O      0.583895115000     0.527224175000     0.278423500000     0.045741   
O129     O      0.583895115000     0.527224175000     0.778423500000     0.045741   
O130     O      0.100675015000     0.002968680000     0.484978320000     0.045962   
O130     O      0.100675015000     0.002968680000     0.984978320000     0.045962   
O130     O      0.100675015000     0.502968680000     0.484978320000     0.045962   
O130     O      0.100675015000     0.502968680000     0.984978320000     0.045962   
O130     O      0.600675015000     0.002968680000     0.484978320000     0.045962   
O130     O      0.600675015000     0.002968680000     0.984978320000     0.045962   
O130     O      0.600675015000     0.502968680000     0.484978320000     0.045962   
O130     O      0.600675015000     0.502968680000     0.984978320000     0.045962   
O131     O      0.150480850000     0.133211550000     0.140746610000     0.095901   
O131     O      0.150480850000     0.133211550000     0.640746610000     0.095901   
O131     O      0.150480850000     0.633211550000     0.140746610000     0.095901   
O131     O      0.150480850000     0.633211550000     0.640746610000     0.095901   
O131     O      0.650480850000     0.133211550000     0.140746610000     0.095901   
O131     O      0.650480850000     0.133211550000     0.640746610000     0.095901   
O131     O      0.650480850000     0.633211550000     0.140746610000     0.095901   
O131     O      0.650480850000     0.633211550000     0.640746610000     0.095901   
O132     O      0.131712350000     0.180299280000     0.490617720000    -0.021643   
O132     O      0.131712350000     0.180299280000     0.990617720000    -0.021643   
O132     O      0.131712350000     0.680299280000     0.490617720000    -0.021643   
O132     O      0.131712350000     0.680299280000     0.990617720000    -0.021643   
O132     O      0.631712350000     0.180299280000     0.490617720000    -0.021643   
O132     O      0.631712350000     0.180299280000     0.990617720000    -0.021643   
O132     O      0.631712350000     0.680299280000     0.490617720000    -0.021643   
O132     O      0.631712350000     0.680299280000     0.990617720000    -0.021643   
O133     O      0.122711645000     0.455106825000     0.134832800000     0.0357     
O133     O      0.122711645000     0.455106825000     0.634832800000     0.0357     
O133     O      0.122711645000     0.955106825000     0.134832800000     0.0357     
O133     O      0.122711645000     0.955106825000     0.634832800000     0.0357     
O133     O      0.622711645000     0.455106825000     0.134832800000     0.0357     
O133     O      0.622711645000     0.455106825000     0.634832800000     0.0357     
O133     O      0.622711645000     0.955106825000     0.134832800000     0.0357     
O133     O      0.622711645000     0.955106825000     0.634832800000     0.0357     
O134     O      0.106551660000     0.072580375000     0.314139350000     0.057413   
O134     O      0.106551660000     0.072580375000     0.814139350000     0.057413   
O134     O      0.106551660000     0.572580375000     0.314139350000     0.057413   
O134     O      0.106551660000     0.572580375000     0.814139350000     0.057413   
O134     O      0.606551660000     0.072580375000     0.314139350000     0.057413   
O134     O      0.606551660000     0.072580375000     0.814139350000     0.057413   
O134     O      0.606551660000     0.572580375000     0.314139350000     0.057413   
O134     O      0.606551660000     0.572580375000     0.814139350000     0.057413   


