data_sample_7_relaxed_charged

_audit_creation_method RASPA-1.0
_audit_creation_date 2026-2-5
_audit_author_name ''

_cell_length_a    11.1249
_cell_length_b    14.026
_cell_length_c    16.5432
_cell_angle_alpha 90.7973
_cell_angle_beta  90.5056
_cell_angle_gamma 90.7535
_cell_volume      30969.6

_symmetry_cell_setting          triclinic
_symmetry_space_group_name_Hall 'P 1'
_symmetry_space_group_name_H-M  'P 1'
_symmetry_Int_Tables_number     1

_symmetry_equiv_pos_as_xyz 'x,y,z'

loop_
_atom_site_label
_atom_site_type_symbol
_atom_site_fract_x
_atom_site_fract_y
_atom_site_fract_z
_atom_site_charge
Cu0      Cu     0.148691573333     0.489720285000     0.448895635000     0.000862   
Cu0      Cu     0.148691573333     0.489720285000     0.948895635000     0.000862   
Cu0      Cu     0.148691573333     0.989720285000     0.448895635000     0.000862   
Cu0      Cu     0.148691573333     0.989720285000     0.948895635000     0.000862   
Cu0      Cu     0.482024906667     0.489720285000     0.448895635000     0.000862   
Cu0      Cu     0.482024906667     0.489720285000     0.948895635000     0.000862   
Cu0      Cu     0.482024906667     0.989720285000     0.448895635000     0.000862   
Cu0      Cu     0.482024906667     0.989720285000     0.948895635000     0.000862   
Cu0      Cu     0.815358240000     0.489720285000     0.448895635000     0.000862   
Cu0      Cu     0.815358240000     0.489720285000     0.948895635000     0.000862   
Cu0      Cu     0.815358240000     0.989720285000     0.448895635000     0.000862   
Cu0      Cu     0.815358240000     0.989720285000     0.948895635000     0.000862   
Cu1      Cu     0.084725073333     0.429162325000     0.445554675000     0.106055   
Cu1      Cu     0.084725073333     0.429162325000     0.945554675000     0.106055   
Cu1      Cu     0.084725073333     0.929162325000     0.445554675000     0.106055   
Cu1      Cu     0.084725073333     0.929162325000     0.945554675000     0.106055   
Cu1      Cu     0.418058406667     0.429162325000     0.445554675000     0.106055   
Cu1      Cu     0.418058406667     0.429162325000     0.945554675000     0.106055   
Cu1      Cu     0.418058406667     0.929162325000     0.445554675000     0.106055   
Cu1      Cu     0.418058406667     0.929162325000     0.945554675000     0.106055   
Cu1      Cu     0.751391740000     0.429162325000     0.445554675000     0.106055   
Cu1      Cu     0.751391740000     0.429162325000     0.945554675000     0.106055   
Cu1      Cu     0.751391740000     0.929162325000     0.445554675000     0.106055   
Cu1      Cu     0.751391740000     0.929162325000     0.945554675000     0.106055   
H2       H      0.223659033333     0.366751050000     0.024533930000     0.129609   
H2       H      0.223659033333     0.366751050000     0.524533930000     0.129609   
H2       H      0.223659033333     0.866751050000     0.024533930000     0.129609   
H2       H      0.223659033333     0.866751050000     0.524533930000     0.129609   
H2       H      0.556992366667     0.366751050000     0.024533930000     0.129609   
H2       H      0.556992366667     0.366751050000     0.524533930000     0.129609   
H2       H      0.556992366667     0.866751050000     0.024533930000     0.129609   
H2       H      0.556992366667     0.866751050000     0.524533930000     0.129609   
H2       H      0.890325700000     0.366751050000     0.024533930000     0.129609   
H2       H      0.890325700000     0.366751050000     0.524533930000     0.129609   
H2       H      0.890325700000     0.866751050000     0.024533930000     0.129609   
H2       H      0.890325700000     0.866751050000     0.524533930000     0.129609   
H3       H      0.289992500000     0.322191250000     0.481655100000     0.177507   
H3       H      0.289992500000     0.322191250000     0.981655100000     0.177507   
H3       H      0.289992500000     0.822191250000     0.481655100000     0.177507   
H3       H      0.289992500000     0.822191250000     0.981655100000     0.177507   
H3       H      0.623325833333     0.322191250000     0.481655100000     0.177507   
H3       H      0.623325833333     0.322191250000     0.981655100000     0.177507   
H3       H      0.623325833333     0.822191250000     0.481655100000     0.177507   
H3       H      0.623325833333     0.822191250000     0.981655100000     0.177507   
H3       H      0.956659166667     0.322191250000     0.481655100000     0.177507   
H3       H      0.956659166667     0.322191250000     0.981655100000     0.177507   
H3       H      0.956659166667     0.822191250000     0.481655100000     0.177507   
H3       H      0.956659166667     0.822191250000     0.981655100000     0.177507   
H4       H      0.153333456667     0.266982650000     0.335784900000     0.080377   
H4       H      0.153333456667     0.266982650000     0.835784900000     0.080377   
H4       H      0.153333456667     0.766982650000     0.335784900000     0.080377   
H4       H      0.153333456667     0.766982650000     0.835784900000     0.080377   
H4       H      0.486666790000     0.266982650000     0.335784900000     0.080377   
H4       H      0.486666790000     0.266982650000     0.835784900000     0.080377   
H4       H      0.486666790000     0.766982650000     0.335784900000     0.080377   
H4       H      0.486666790000     0.766982650000     0.835784900000     0.080377   
H4       H      0.820000123333     0.266982650000     0.335784900000     0.080377   
H4       H      0.820000123333     0.266982650000     0.835784900000     0.080377   
H4       H      0.820000123333     0.766982650000     0.335784900000     0.080377   
H4       H      0.820000123333     0.766982650000     0.835784900000     0.080377   
H5       H      0.065676296667     0.147306325000     0.050024270000     0.069322   
H5       H      0.065676296667     0.147306325000     0.550024270000     0.069322   
H5       H      0.065676296667     0.647306325000     0.050024270000     0.069322   
H5       H      0.065676296667     0.647306325000     0.550024270000     0.069322   
H5       H      0.399009630000     0.147306325000     0.050024270000     0.069322   
H5       H      0.399009630000     0.147306325000     0.550024270000     0.069322   
H5       H      0.399009630000     0.647306325000     0.050024270000     0.069322   
H5       H      0.399009630000     0.647306325000     0.550024270000     0.069322   
H5       H      0.732342963333     0.147306325000     0.050024270000     0.069322   
H5       H      0.732342963333     0.147306325000     0.550024270000     0.069322   
H5       H      0.732342963333     0.647306325000     0.050024270000     0.069322   
H5       H      0.732342963333     0.647306325000     0.550024270000     0.069322   
H6       H      0.214079500000     0.130125880000     0.318719450000     0.080851   
H6       H      0.214079500000     0.130125880000     0.818719450000     0.080851   
H6       H      0.214079500000     0.630125880000     0.318719450000     0.080851   
H6       H      0.214079500000     0.630125880000     0.818719450000     0.080851   
H6       H      0.547412833333     0.130125880000     0.318719450000     0.080851   
H6       H      0.547412833333     0.130125880000     0.818719450000     0.080851   
H6       H      0.547412833333     0.630125880000     0.318719450000     0.080851   
H6       H      0.547412833333     0.630125880000     0.818719450000     0.080851   
H6       H      0.880746166667     0.130125880000     0.318719450000     0.080851   
H6       H      0.880746166667     0.130125880000     0.818719450000     0.080851   
H6       H      0.880746166667     0.630125880000     0.318719450000     0.080851   
H6       H      0.880746166667     0.630125880000     0.818719450000     0.080851   
H7       H      0.073307800000     0.286370350000     0.393578600000     0.190542   
H7       H      0.073307800000     0.286370350000     0.893578600000     0.190542   
H7       H      0.073307800000     0.786370350000     0.393578600000     0.190542   
H7       H      0.073307800000     0.786370350000     0.893578600000     0.190542   
H7       H      0.406641133333     0.286370350000     0.393578600000     0.190542   
H7       H      0.406641133333     0.286370350000     0.893578600000     0.190542   
H7       H      0.406641133333     0.786370350000     0.393578600000     0.190542   
H7       H      0.406641133333     0.786370350000     0.893578600000     0.190542   
H7       H      0.739974466667     0.286370350000     0.393578600000     0.190542   
H7       H      0.739974466667     0.286370350000     0.893578600000     0.190542   
H7       H      0.739974466667     0.786370350000     0.393578600000     0.190542   
H7       H      0.739974466667     0.786370350000     0.893578600000     0.190542   
H8       H      0.009313466667     0.282417200000     0.067323090000     0.056771   
H8       H      0.009313466667     0.282417200000     0.567323090000     0.056771   
H8       H      0.009313466667     0.782417200000     0.067323090000     0.056771   
H8       H      0.009313466667     0.782417200000     0.567323090000     0.056771   
H8       H      0.342646800000     0.282417200000     0.067323090000     0.056771   
H8       H      0.342646800000     0.282417200000     0.567323090000     0.056771   
H8       H      0.342646800000     0.782417200000     0.067323090000     0.056771   
H8       H      0.342646800000     0.782417200000     0.567323090000     0.056771   
H8       H      0.675980133333     0.282417200000     0.067323090000     0.056771   
H8       H      0.675980133333     0.282417200000     0.567323090000     0.056771   
H8       H      0.675980133333     0.782417200000     0.067323090000     0.056771   
H8       H      0.675980133333     0.782417200000     0.567323090000     0.056771   
H9       H      0.194327553333     0.065879200000     0.354467035000     0.238655   
H9       H      0.194327553333     0.065879200000     0.854467035000     0.238655   
H9       H      0.194327553333     0.565879200000     0.354467035000     0.238655   
H9       H      0.194327553333     0.565879200000     0.854467035000     0.238655   
H9       H      0.527660886667     0.065879200000     0.354467035000     0.238655   
H9       H      0.527660886667     0.065879200000     0.854467035000     0.238655   
H9       H      0.527660886667     0.565879200000     0.354467035000     0.238655   
H9       H      0.527660886667     0.565879200000     0.854467035000     0.238655   
H9       H      0.860994220000     0.065879200000     0.354467035000     0.238655   
H9       H      0.860994220000     0.065879200000     0.854467035000     0.238655   
H9       H      0.860994220000     0.565879200000     0.354467035000     0.238655   
H9       H      0.860994220000     0.565879200000     0.854467035000     0.238655   
H10      H      0.113951653333     0.085805655000     0.448900750000     0.378764   
H10      H      0.113951653333     0.085805655000     0.948900750000     0.378764   
H10      H      0.113951653333     0.585805655000     0.448900750000     0.378764   
H10      H      0.113951653333     0.585805655000     0.948900750000     0.378764   
H10      H      0.447284986667     0.085805655000     0.448900750000     0.378764   
H10      H      0.447284986667     0.085805655000     0.948900750000     0.378764   
H10      H      0.447284986667     0.585805655000     0.448900750000     0.378764   
H10      H      0.447284986667     0.585805655000     0.948900750000     0.378764   
H10      H      0.780618320000     0.085805655000     0.448900750000     0.378764   
H10      H      0.780618320000     0.085805655000     0.948900750000     0.378764   
H10      H      0.780618320000     0.585805655000     0.448900750000     0.378764   
H10      H      0.780618320000     0.585805655000     0.948900750000     0.378764   
H11      H      0.331851233333     0.465709250000     0.233900040000    -0.114759   
H11      H      0.331851233333     0.465709250000     0.733900040000    -0.114759   
H11      H      0.331851233333     0.965709250000     0.233900040000    -0.114759   
H11      H      0.331851233333     0.965709250000     0.733900040000    -0.114759   
H11      H      0.665184566667     0.465709250000     0.233900040000    -0.114759   
H11      H      0.665184566667     0.465709250000     0.733900040000    -0.114759   
H11      H      0.665184566667     0.965709250000     0.233900040000    -0.114759   
H11      H      0.665184566667     0.965709250000     0.733900040000    -0.114759   
H11      H      0.998517900000     0.465709250000     0.233900040000    -0.114759   
H11      H      0.998517900000     0.465709250000     0.733900040000    -0.114759   
H11      H      0.998517900000     0.965709250000     0.233900040000    -0.114759   
H11      H      0.998517900000     0.965709250000     0.733900040000    -0.114759   
H12      H      0.332084733333     0.004378260000     0.135679185000    -0.042894   
H12      H      0.332084733333     0.004378260000     0.635679185000    -0.042894   
H12      H      0.332084733333     0.504378260000     0.135679185000    -0.042894   
H12      H      0.332084733333     0.504378260000     0.635679185000    -0.042894   
H12      H      0.665418066667     0.004378260000     0.135679185000    -0.042894   
H12      H      0.665418066667     0.004378260000     0.635679185000    -0.042894   
H12      H      0.665418066667     0.504378260000     0.135679185000    -0.042894   
H12      H      0.665418066667     0.504378260000     0.635679185000    -0.042894   
H12      H      0.998751400000     0.004378260000     0.135679185000    -0.042894   
H12      H      0.998751400000     0.004378260000     0.635679185000    -0.042894   
H12      H      0.998751400000     0.504378260000     0.135679185000    -0.042894   
H12      H      0.998751400000     0.504378260000     0.635679185000    -0.042894   
H13      H      0.150054316667     0.398776550000     0.275043280000     0.265331   
H13      H      0.150054316667     0.398776550000     0.775043280000     0.265331   
H13      H      0.150054316667     0.898776550000     0.275043280000     0.265331   
H13      H      0.150054316667     0.898776550000     0.775043280000     0.265331   
H13      H      0.483387650000     0.398776550000     0.275043280000     0.265331   
H13      H      0.483387650000     0.398776550000     0.775043280000     0.265331   
H13      H      0.483387650000     0.898776550000     0.275043280000     0.265331   
H13      H      0.483387650000     0.898776550000     0.775043280000     0.265331   
H13      H      0.816720983333     0.398776550000     0.275043280000     0.265331   
H13      H      0.816720983333     0.398776550000     0.775043280000     0.265331   
H13      H      0.816720983333     0.898776550000     0.275043280000     0.265331   
H13      H      0.816720983333     0.898776550000     0.775043280000     0.265331   
H14      H      0.179870286667     0.487503470000     0.223658485000    -0.056721   
H14      H      0.179870286667     0.487503470000     0.723658485000    -0.056721   
H14      H      0.179870286667     0.987503470000     0.223658485000    -0.056721   
H14      H      0.179870286667     0.987503470000     0.723658485000    -0.056721   
H14      H      0.513203620000     0.487503470000     0.223658485000    -0.056721   
H14      H      0.513203620000     0.487503470000     0.723658485000    -0.056721   
H14      H      0.513203620000     0.987503470000     0.223658485000    -0.056721   
H14      H      0.513203620000     0.987503470000     0.723658485000    -0.056721   
H14      H      0.846536953333     0.487503470000     0.223658485000    -0.056721   
H14      H      0.846536953333     0.487503470000     0.723658485000    -0.056721   
H14      H      0.846536953333     0.987503470000     0.223658485000    -0.056721   
H14      H      0.846536953333     0.987503470000     0.723658485000    -0.056721   
H15      H      0.060294006667     0.003846405000     0.109500175000     0.161439   
H15      H      0.060294006667     0.003846405000     0.609500175000     0.161439   
H15      H      0.060294006667     0.503846405000     0.109500175000     0.161439   
H15      H      0.060294006667     0.503846405000     0.609500175000     0.161439   
H15      H      0.393627340000     0.003846405000     0.109500175000     0.161439   
H15      H      0.393627340000     0.003846405000     0.609500175000     0.161439   
H15      H      0.393627340000     0.503846405000     0.109500175000     0.161439   
H15      H      0.393627340000     0.503846405000     0.609500175000     0.161439   
H15      H      0.726960673333     0.003846405000     0.109500175000     0.161439   
H15      H      0.726960673333     0.003846405000     0.609500175000     0.161439   
H15      H      0.726960673333     0.503846405000     0.109500175000     0.161439   
H15      H      0.726960673333     0.503846405000     0.609500175000     0.161439   
H16      H      0.202807146667     0.498995700000     0.098139735000    -0.021244   
H16      H      0.202807146667     0.498995700000     0.598139735000    -0.021244   
H16      H      0.202807146667     0.998995700000     0.098139735000    -0.021244   
H16      H      0.202807146667     0.998995700000     0.598139735000    -0.021244   
H16      H      0.536140480000     0.498995700000     0.098139735000    -0.021244   
H16      H      0.536140480000     0.498995700000     0.598139735000    -0.021244   
H16      H      0.536140480000     0.998995700000     0.098139735000    -0.021244   
H16      H      0.536140480000     0.998995700000     0.598139735000    -0.021244   
H16      H      0.869473813333     0.498995700000     0.098139735000    -0.021244   
H16      H      0.869473813333     0.498995700000     0.598139735000    -0.021244   
H16      H      0.869473813333     0.998995700000     0.098139735000    -0.021244   
H16      H      0.869473813333     0.998995700000     0.598139735000    -0.021244   
H17      H      0.029406596667     0.460709550000     0.332875200000     0.020108   
H17      H      0.029406596667     0.460709550000     0.832875200000     0.020108   
H17      H      0.029406596667     0.960709550000     0.332875200000     0.020108   
H17      H      0.029406596667     0.960709550000     0.832875200000     0.020108   
H17      H      0.362739930000     0.460709550000     0.332875200000     0.020108   
H17      H      0.362739930000     0.460709550000     0.832875200000     0.020108   
H17      H      0.362739930000     0.960709550000     0.332875200000     0.020108   
H17      H      0.362739930000     0.960709550000     0.832875200000     0.020108   
H17      H      0.696073263333     0.460709550000     0.332875200000     0.020108   
H17      H      0.696073263333     0.460709550000     0.832875200000     0.020108   
H17      H      0.696073263333     0.960709550000     0.332875200000     0.020108   
H17      H      0.696073263333     0.960709550000     0.832875200000     0.020108   
H18      H      0.226328566667     0.001743615000     0.168814825000     0.001991   
H18      H      0.226328566667     0.001743615000     0.668814825000     0.001991   
H18      H      0.226328566667     0.501743615000     0.168814825000     0.001991   
H18      H      0.226328566667     0.501743615000     0.668814825000     0.001991   
H18      H      0.559661900000     0.001743615000     0.168814825000     0.001991   
H18      H      0.559661900000     0.001743615000     0.668814825000     0.001991   
H18      H      0.559661900000     0.501743615000     0.168814825000     0.001991   
H18      H      0.559661900000     0.501743615000     0.668814825000     0.001991   
H18      H      0.892995233333     0.001743615000     0.168814825000     0.001991   
H18      H      0.892995233333     0.001743615000     0.668814825000     0.001991   
H18      H      0.892995233333     0.501743615000     0.168814825000     0.001991   
H18      H      0.892995233333     0.501743615000     0.668814825000     0.001991   
C19      C      0.318023600000     0.440612550000     0.425610275000    -0.050834   
C19      C      0.318023600000     0.440612550000     0.925610275000    -0.050834   
C19      C      0.318023600000     0.940612550000     0.425610275000    -0.050834   
C19      C      0.318023600000     0.940612550000     0.925610275000    -0.050834   
C19      C      0.651356933333     0.440612550000     0.425610275000    -0.050834   
C19      C      0.651356933333     0.440612550000     0.925610275000    -0.050834   
C19      C      0.651356933333     0.940612550000     0.425610275000    -0.050834   
C19      C      0.651356933333     0.940612550000     0.925610275000    -0.050834   
C19      C      0.984690266667     0.440612550000     0.425610275000    -0.050834   
C19      C      0.984690266667     0.440612550000     0.925610275000    -0.050834   
C19      C      0.984690266667     0.940612550000     0.425610275000    -0.050834   
C19      C      0.984690266667     0.940612550000     0.925610275000    -0.050834   
C20      C      0.239985883333     0.481244650000     0.449134350000     0.059567   
C20      C      0.239985883333     0.481244650000     0.949134350000     0.059567   
C20      C      0.239985883333     0.981244650000     0.449134350000     0.059567   
C20      C      0.239985883333     0.981244650000     0.949134350000     0.059567   
C20      C      0.573319216667     0.481244650000     0.449134350000     0.059567   
C20      C      0.573319216667     0.481244650000     0.949134350000     0.059567   
C20      C      0.573319216667     0.981244650000     0.449134350000     0.059567   
C20      C      0.573319216667     0.981244650000     0.949134350000     0.059567   
C20      C      0.906652550000     0.481244650000     0.449134350000     0.059567   
C20      C      0.906652550000     0.481244650000     0.949134350000     0.059567   
C20      C      0.906652550000     0.981244650000     0.449134350000     0.059567   
C20      C      0.906652550000     0.981244650000     0.949134350000     0.059567   
C21      C      0.260388056667     0.446161950000     0.466793000000    -0.065113   
C21      C      0.260388056667     0.446161950000     0.966793000000    -0.065113   
C21      C      0.260388056667     0.946161950000     0.466793000000    -0.065113   
C21      C      0.260388056667     0.946161950000     0.966793000000    -0.065113   
C21      C      0.593721390000     0.446161950000     0.466793000000    -0.065113   
C21      C      0.593721390000     0.446161950000     0.966793000000    -0.065113   
C21      C      0.593721390000     0.946161950000     0.466793000000    -0.065113   
C21      C      0.593721390000     0.946161950000     0.966793000000    -0.065113   
C21      C      0.927054723333     0.446161950000     0.466793000000    -0.065113   
C21      C      0.927054723333     0.446161950000     0.966793000000    -0.065113   
C21      C      0.927054723333     0.946161950000     0.466793000000    -0.065113   
C21      C      0.927054723333     0.946161950000     0.966793000000    -0.065113   
C22      C      0.285678346667     0.418175670000     0.441093685000     0.10097    
C22      C      0.285678346667     0.418175670000     0.941093685000     0.10097    
C22      C      0.285678346667     0.918175670000     0.441093685000     0.10097    
C22      C      0.285678346667     0.918175670000     0.941093685000     0.10097    
C22      C      0.619011680000     0.418175670000     0.441093685000     0.10097    
C22      C      0.619011680000     0.418175670000     0.941093685000     0.10097    
C22      C      0.619011680000     0.918175670000     0.441093685000     0.10097    
C22      C      0.619011680000     0.918175670000     0.941093685000     0.10097    
C22      C      0.952345013333     0.418175670000     0.441093685000     0.10097    
C22      C      0.952345013333     0.418175670000     0.941093685000     0.10097    
C22      C      0.952345013333     0.918175670000     0.441093685000     0.10097    
C22      C      0.952345013333     0.918175670000     0.941093685000     0.10097    
C23      C      0.018340070000     0.415406750000     0.409872085000     0.124277   
C23      C      0.018340070000     0.415406750000     0.909872085000     0.124277   
C23      C      0.018340070000     0.915406750000     0.409872085000     0.124277   
C23      C      0.018340070000     0.915406750000     0.909872085000     0.124277   
C23      C      0.351673403333     0.415406750000     0.409872085000     0.124277   
C23      C      0.351673403333     0.415406750000     0.909872085000     0.124277   
C23      C      0.351673403333     0.915406750000     0.409872085000     0.124277   
C23      C      0.351673403333     0.915406750000     0.909872085000     0.124277   
C23      C      0.685006736667     0.415406750000     0.409872085000     0.124277   
C23      C      0.685006736667     0.415406750000     0.909872085000     0.124277   
C23      C      0.685006736667     0.915406750000     0.409872085000     0.124277   
C23      C      0.685006736667     0.915406750000     0.909872085000     0.124277   
C24      C      0.206726366667     0.003011825000     0.468165650000    -0.11812    
C24      C      0.206726366667     0.003011825000     0.968165650000    -0.11812    
C24      C      0.206726366667     0.503011825000     0.468165650000    -0.11812    
C24      C      0.206726366667     0.503011825000     0.968165650000    -0.11812    
C24      C      0.540059700000     0.003011825000     0.468165650000    -0.11812    
C24      C      0.540059700000     0.003011825000     0.968165650000    -0.11812    
C24      C      0.540059700000     0.503011825000     0.468165650000    -0.11812    
C24      C      0.540059700000     0.503011825000     0.968165650000    -0.11812    
C24      C      0.873393033333     0.003011825000     0.468165650000    -0.11812    
C24      C      0.873393033333     0.003011825000     0.968165650000    -0.11812    
C24      C      0.873393033333     0.503011825000     0.468165650000    -0.11812    
C24      C      0.873393033333     0.503011825000     0.968165650000    -0.11812    
C25      C      0.177461683333     0.139337800000     0.363643300000     0.19709    
C25      C      0.177461683333     0.139337800000     0.863643300000     0.19709    
C25      C      0.177461683333     0.639337800000     0.363643300000     0.19709    
C25      C      0.177461683333     0.639337800000     0.863643300000     0.19709    
C25      C      0.510795016667     0.139337800000     0.363643300000     0.19709    
C25      C      0.510795016667     0.139337800000     0.863643300000     0.19709    
C25      C      0.510795016667     0.639337800000     0.363643300000     0.19709    
C25      C      0.510795016667     0.639337800000     0.863643300000     0.19709    
C25      C      0.844128350000     0.139337800000     0.363643300000     0.19709    
C25      C      0.844128350000     0.139337800000     0.863643300000     0.19709    
C25      C      0.844128350000     0.639337800000     0.363643300000     0.19709    
C25      C      0.844128350000     0.639337800000     0.863643300000     0.19709    
C26      C      0.177712333333     0.090752765000     0.372842370000    -0.108262   
C26      C      0.177712333333     0.090752765000     0.872842370000    -0.108262   
C26      C      0.177712333333     0.590752765000     0.372842370000    -0.108262   
C26      C      0.177712333333     0.590752765000     0.872842370000    -0.108262   
C26      C      0.511045666667     0.090752765000     0.372842370000    -0.108262   
C26      C      0.511045666667     0.090752765000     0.872842370000    -0.108262   
C26      C      0.511045666667     0.590752765000     0.372842370000    -0.108262   
C26      C      0.511045666667     0.590752765000     0.872842370000    -0.108262   
C26      C      0.844379000000     0.090752765000     0.372842370000    -0.108262   
C26      C      0.844379000000     0.090752765000     0.872842370000    -0.108262   
C26      C      0.844379000000     0.590752765000     0.372842370000    -0.108262   
C26      C      0.844379000000     0.590752765000     0.872842370000    -0.108262   
C27      C      0.133697290000     0.102550810000     0.427539975000     0.071785   
C27      C      0.133697290000     0.102550810000     0.927539975000     0.071785   
C27      C      0.133697290000     0.602550810000     0.427539975000     0.071785   
C27      C      0.133697290000     0.602550810000     0.927539975000     0.071785   
C27      C      0.467030623333     0.102550810000     0.427539975000     0.071785   
C27      C      0.467030623333     0.102550810000     0.927539975000     0.071785   
C27      C      0.467030623333     0.602550810000     0.427539975000     0.071785   
C27      C      0.467030623333     0.602550810000     0.927539975000     0.071785   
C27      C      0.800363956667     0.102550810000     0.427539975000     0.071785   
C27      C      0.800363956667     0.102550810000     0.927539975000     0.071785   
C27      C      0.800363956667     0.602550810000     0.427539975000     0.071785   
C27      C      0.800363956667     0.602550810000     0.927539975000     0.071785   
C28      C      0.135668346667     0.152244360000     0.423035450000     0.17331    
C28      C      0.135668346667     0.152244360000     0.923035450000     0.17331    
C28      C      0.135668346667     0.652244360000     0.423035450000     0.17331    
C28      C      0.135668346667     0.652244360000     0.923035450000     0.17331    
C28      C      0.469001680000     0.152244360000     0.423035450000     0.17331    
C28      C      0.469001680000     0.152244360000     0.923035450000     0.17331    
C28      C      0.469001680000     0.652244360000     0.423035450000     0.17331    
C28      C      0.469001680000     0.652244360000     0.923035450000     0.17331    
C28      C      0.802335013333     0.152244360000     0.423035450000     0.17331    
C28      C      0.802335013333     0.152244360000     0.923035450000     0.17331    
C28      C      0.802335013333     0.652244360000     0.423035450000     0.17331    
C28      C      0.802335013333     0.652244360000     0.923035450000     0.17331    
C29      C      0.153849553333     0.170132935000     0.387580930000    -0.003531   
C29      C      0.153849553333     0.170132935000     0.887580930000    -0.003531   
C29      C      0.153849553333     0.670132935000     0.387580930000    -0.003531   
C29      C      0.153849553333     0.670132935000     0.887580930000    -0.003531   
C29      C      0.487182886667     0.170132935000     0.387580930000    -0.003531   
C29      C      0.487182886667     0.170132935000     0.887580930000    -0.003531   
C29      C      0.487182886667     0.670132935000     0.387580930000    -0.003531   
C29      C      0.487182886667     0.670132935000     0.887580930000    -0.003531   
C29      C      0.820516220000     0.170132935000     0.387580930000    -0.003531   
C29      C      0.820516220000     0.170132935000     0.887580930000    -0.003531   
C29      C      0.820516220000     0.670132935000     0.387580930000    -0.003531   
C29      C      0.820516220000     0.670132935000     0.887580930000    -0.003531   
C30      C      0.117761146667     0.184003800000     0.451155485000     0.004488   
C30      C      0.117761146667     0.184003800000     0.951155485000     0.004488   
C30      C      0.117761146667     0.684003800000     0.451155485000     0.004488   
C30      C      0.117761146667     0.684003800000     0.951155485000     0.004488   
C30      C      0.451094480000     0.184003800000     0.451155485000     0.004488   
C30      C      0.451094480000     0.184003800000     0.951155485000     0.004488   
C30      C      0.451094480000     0.684003800000     0.451155485000     0.004488   
C30      C      0.451094480000     0.684003800000     0.951155485000     0.004488   
C30      C      0.784427813333     0.184003800000     0.451155485000     0.004488   
C30      C      0.784427813333     0.184003800000     0.951155485000     0.004488   
C30      C      0.784427813333     0.684003800000     0.451155485000     0.004488   
C30      C      0.784427813333     0.684003800000     0.951155485000     0.004488   
C31      C      0.110722766667     0.231579720000     0.439263300000     0.036677   
C31      C      0.110722766667     0.231579720000     0.939263300000     0.036677   
C31      C      0.110722766667     0.731579720000     0.439263300000     0.036677   
C31      C      0.110722766667     0.731579720000     0.939263300000     0.036677   
C31      C      0.444056100000     0.231579720000     0.439263300000     0.036677   
C31      C      0.444056100000     0.231579720000     0.939263300000     0.036677   
C31      C      0.444056100000     0.731579720000     0.439263300000     0.036677   
C31      C      0.444056100000     0.731579720000     0.939263300000     0.036677   
C31      C      0.777389433333     0.231579720000     0.439263300000     0.036677   
C31      C      0.777389433333     0.231579720000     0.939263300000     0.036677   
C31      C      0.777389433333     0.731579720000     0.439263300000     0.036677   
C31      C      0.777389433333     0.731579720000     0.939263300000     0.036677   
C32      C      0.118862720000     0.244432225000     0.398632170000     0.080722   
C32      C      0.118862720000     0.244432225000     0.898632170000     0.080722   
C32      C      0.118862720000     0.744432225000     0.398632170000     0.080722   
C32      C      0.118862720000     0.744432225000     0.898632170000     0.080722   
C32      C      0.452196053333     0.244432225000     0.398632170000     0.080722   
C32      C      0.452196053333     0.244432225000     0.898632170000     0.080722   
C32      C      0.452196053333     0.744432225000     0.398632170000     0.080722   
C32      C      0.452196053333     0.744432225000     0.898632170000     0.080722   
C32      C      0.785529386667     0.244432225000     0.398632170000     0.080722   
C32      C      0.785529386667     0.244432225000     0.898632170000     0.080722   
C32      C      0.785529386667     0.744432225000     0.398632170000     0.080722   
C32      C      0.785529386667     0.744432225000     0.898632170000     0.080722   
C33      C      0.145038256667     0.216742550000     0.375251050000     0.128363   
C33      C      0.145038256667     0.216742550000     0.875251050000     0.128363   
C33      C      0.145038256667     0.716742550000     0.375251050000     0.128363   
C33      C      0.145038256667     0.716742550000     0.875251050000     0.128363   
C33      C      0.478371590000     0.216742550000     0.375251050000     0.128363   
C33      C      0.478371590000     0.216742550000     0.875251050000     0.128363   
C33      C      0.478371590000     0.716742550000     0.375251050000     0.128363   
C33      C      0.478371590000     0.716742550000     0.875251050000     0.128363   
C33      C      0.811704923333     0.216742550000     0.375251050000     0.128363   
C33      C      0.811704923333     0.216742550000     0.875251050000     0.128363   
C33      C      0.811704923333     0.716742550000     0.375251050000     0.128363   
C33      C      0.811704923333     0.716742550000     0.875251050000     0.128363   
C34      C      0.107307573333     0.170281515000     0.490931700000     0.187597   
C34      C      0.107307573333     0.170281515000     0.990931700000     0.187597   
C34      C      0.107307573333     0.670281515000     0.490931700000     0.187597   
C34      C      0.107307573333     0.670281515000     0.990931700000     0.187597   
C34      C      0.440640906667     0.170281515000     0.490931700000     0.187597   
C34      C      0.440640906667     0.170281515000     0.990931700000     0.187597   
C34      C      0.440640906667     0.670281515000     0.490931700000     0.187597   
C34      C      0.440640906667     0.670281515000     0.990931700000     0.187597   
C34      C      0.773974240000     0.170281515000     0.490931700000     0.187597   
C34      C      0.773974240000     0.170281515000     0.990931700000     0.187597   
C34      C      0.773974240000     0.670281515000     0.490931700000     0.187597   
C34      C      0.773974240000     0.670281515000     0.990931700000     0.187597   
C35      C      0.081456006667     0.198757300000     0.013989450000    -0.122996   
C35      C      0.081456006667     0.198757300000     0.513989450000    -0.122996   
C35      C      0.081456006667     0.698757300000     0.013989450000    -0.122996   
C35      C      0.081456006667     0.698757300000     0.513989450000    -0.122996   
C35      C      0.414789340000     0.198757300000     0.013989450000    -0.122996   
C35      C      0.414789340000     0.198757300000     0.513989450000    -0.122996   
C35      C      0.414789340000     0.698757300000     0.013989450000    -0.122996   
C35      C      0.414789340000     0.698757300000     0.513989450000    -0.122996   
C35      C      0.748122673333     0.198757300000     0.013989450000    -0.122996   
C35      C      0.748122673333     0.198757300000     0.513989450000    -0.122996   
C35      C      0.748122673333     0.698757300000     0.013989450000    -0.122996   
C35      C      0.748122673333     0.698757300000     0.513989450000    -0.122996   
C36      C      0.075044026667     0.246345100000     0.002465905000    -0.209323   
C36      C      0.075044026667     0.246345100000     0.502465905000    -0.209323   
C36      C      0.075044026667     0.746345100000     0.002465905000    -0.209323   
C36      C      0.075044026667     0.746345100000     0.502465905000    -0.209323   
C36      C      0.408377360000     0.246345100000     0.002465905000    -0.209323   
C36      C      0.408377360000     0.246345100000     0.502465905000    -0.209323   
C36      C      0.408377360000     0.746345100000     0.002465905000    -0.209323   
C36      C      0.408377360000     0.746345100000     0.502465905000    -0.209323   
C36      C      0.741710693333     0.246345100000     0.002465905000    -0.209323   
C36      C      0.741710693333     0.246345100000     0.502465905000    -0.209323   
C36      C      0.741710693333     0.746345100000     0.002465905000    -0.209323   
C36      C      0.741710693333     0.746345100000     0.502465905000    -0.209323   
C37      C      0.094796310000     0.264367430000     0.467991470000    -0.018769   
C37      C      0.094796310000     0.264367430000     0.967991470000    -0.018769   
C37      C      0.094796310000     0.764367430000     0.467991470000    -0.018769   
C37      C      0.094796310000     0.764367430000     0.967991470000    -0.018769   
C37      C      0.428129643333     0.264367430000     0.467991470000    -0.018769   
C37      C      0.428129643333     0.264367430000     0.967991470000    -0.018769   
C37      C      0.428129643333     0.764367430000     0.467991470000    -0.018769   
C37      C      0.428129643333     0.764367430000     0.967991470000    -0.018769   
C37      C      0.761462976667     0.264367430000     0.467991470000    -0.018769   
C37      C      0.761462976667     0.264367430000     0.967991470000    -0.018769   
C37      C      0.761462976667     0.764367430000     0.467991470000    -0.018769   
C37      C      0.761462976667     0.764367430000     0.967991470000    -0.018769   
C38      C      0.051519466667     0.277153970000     0.026203395000     0.005144   
C38      C      0.051519466667     0.277153970000     0.526203395000     0.005144   
C38      C      0.051519466667     0.777153970000     0.026203395000     0.005144   
C38      C      0.051519466667     0.777153970000     0.526203395000     0.005144   
C38      C      0.384852800000     0.277153970000     0.026203395000     0.005144   
C38      C      0.384852800000     0.277153970000     0.526203395000     0.005144   
C38      C      0.384852800000     0.777153970000     0.026203395000     0.005144   
C38      C      0.384852800000     0.777153970000     0.526203395000     0.005144   
C38      C      0.718186133333     0.277153970000     0.026203395000     0.005144   
C38      C      0.718186133333     0.277153970000     0.526203395000     0.005144   
C38      C      0.718186133333     0.777153970000     0.026203395000     0.005144   
C38      C      0.718186133333     0.777153970000     0.526203395000     0.005144   
C39      C      0.053646693333     0.326496275000     0.018853070000    -0.046894   
C39      C      0.053646693333     0.326496275000     0.518853070000    -0.046894   
C39      C      0.053646693333     0.826496275000     0.018853070000    -0.046894   
C39      C      0.053646693333     0.826496275000     0.518853070000    -0.046894   
C39      C      0.386980026667     0.326496275000     0.018853070000    -0.046894   
C39      C      0.386980026667     0.326496275000     0.518853070000    -0.046894   
C39      C      0.386980026667     0.826496275000     0.018853070000    -0.046894   
C39      C      0.386980026667     0.826496275000     0.518853070000    -0.046894   
C39      C      0.720313360000     0.326496275000     0.018853070000    -0.046894   
C39      C      0.720313360000     0.326496275000     0.518853070000    -0.046894   
C39      C      0.720313360000     0.826496275000     0.018853070000    -0.046894   
C39      C      0.720313360000     0.826496275000     0.518853070000    -0.046894   
C40      C      0.099653113333     0.314565300000     0.465237915000     0.052854   
C40      C      0.099653113333     0.314565300000     0.965237915000     0.052854   
C40      C      0.099653113333     0.814565300000     0.465237915000     0.052854   
C40      C      0.099653113333     0.814565300000     0.965237915000     0.052854   
C40      C      0.432986446667     0.314565300000     0.465237915000     0.052854   
C40      C      0.432986446667     0.314565300000     0.965237915000     0.052854   
C40      C      0.432986446667     0.814565300000     0.465237915000     0.052854   
C40      C      0.432986446667     0.814565300000     0.965237915000     0.052854   
C40      C      0.766319780000     0.314565300000     0.465237915000     0.052854   
C40      C      0.766319780000     0.314565300000     0.965237915000     0.052854   
C40      C      0.766319780000     0.814565300000     0.465237915000     0.052854   
C40      C      0.766319780000     0.814565300000     0.965237915000     0.052854   
C41      C      0.131108880000     0.335826950000     0.441483650000     0.030128   
C41      C      0.131108880000     0.335826950000     0.941483650000     0.030128   
C41      C      0.131108880000     0.835826950000     0.441483650000     0.030128   
C41      C      0.131108880000     0.835826950000     0.941483650000     0.030128   
C41      C      0.464442213333     0.335826950000     0.441483650000     0.030128   
C41      C      0.464442213333     0.335826950000     0.941483650000     0.030128   
C41      C      0.464442213333     0.835826950000     0.441483650000     0.030128   
C41      C      0.464442213333     0.835826950000     0.941483650000     0.030128   
C41      C      0.797775546667     0.335826950000     0.441483650000     0.030128   
C41      C      0.797775546667     0.335826950000     0.941483650000     0.030128   
C41      C      0.797775546667     0.835826950000     0.441483650000     0.030128   
C41      C      0.797775546667     0.835826950000     0.941483650000     0.030128   
C42      C      0.032852563333     0.359336020000     0.044908585000    -0.086272   
C42      C      0.032852563333     0.359336020000     0.544908585000    -0.086272   
C42      C      0.032852563333     0.859336020000     0.044908585000    -0.086272   
C42      C      0.032852563333     0.859336020000     0.544908585000    -0.086272   
C42      C      0.366185896667     0.359336020000     0.044908585000    -0.086272   
C42      C      0.366185896667     0.359336020000     0.544908585000    -0.086272   
C42      C      0.366185896667     0.859336020000     0.044908585000    -0.086272   
C42      C      0.366185896667     0.859336020000     0.544908585000    -0.086272   
C42      C      0.699519230000     0.359336020000     0.044908585000    -0.086272   
C42      C      0.699519230000     0.359336020000     0.544908585000    -0.086272   
C42      C      0.699519230000     0.859336020000     0.044908585000    -0.086272   
C42      C      0.699519230000     0.859336020000     0.544908585000    -0.086272   
C43      C      0.127680400000     0.131884890000     0.011245965000     0.050697   
C43      C      0.127680400000     0.131884890000     0.511245965000     0.050697   
C43      C      0.127680400000     0.631884890000     0.011245965000     0.050697   
C43      C      0.127680400000     0.631884890000     0.511245965000     0.050697   
C43      C      0.461013733333     0.131884890000     0.011245965000     0.050697   
C43      C      0.461013733333     0.131884890000     0.511245965000     0.050697   
C43      C      0.461013733333     0.631884890000     0.011245965000     0.050697   
C43      C      0.461013733333     0.631884890000     0.511245965000     0.050697   
C43      C      0.794347066667     0.131884890000     0.011245965000     0.050697   
C43      C      0.794347066667     0.131884890000     0.511245965000     0.050697   
C43      C      0.794347066667     0.631884890000     0.011245965000     0.050697   
C43      C      0.794347066667     0.631884890000     0.511245965000     0.050697   
C44      C      0.127251853333     0.479666530000     0.072320275000     0.114103   
C44      C      0.127251853333     0.479666530000     0.572320275000     0.114103   
C44      C      0.127251853333     0.979666530000     0.072320275000     0.114103   
C44      C      0.127251853333     0.979666530000     0.572320275000     0.114103   
C44      C      0.460585186667     0.479666530000     0.072320275000     0.114103   
C44      C      0.460585186667     0.479666530000     0.572320275000     0.114103   
C44      C      0.460585186667     0.979666530000     0.072320275000     0.114103   
C44      C      0.460585186667     0.979666530000     0.572320275000     0.114103   
C44      C      0.793918520000     0.479666530000     0.072320275000     0.114103   
C44      C      0.793918520000     0.479666530000     0.572320275000     0.114103   
C44      C      0.793918520000     0.979666530000     0.072320275000     0.114103   
C44      C      0.793918520000     0.979666530000     0.572320275000     0.114103   
C45      C      0.030349440000     0.460452320000     0.238368150000    -0.064702   
C45      C      0.030349440000     0.460452320000     0.738368150000    -0.064702   
C45      C      0.030349440000     0.960452320000     0.238368150000    -0.064702   
C45      C      0.030349440000     0.960452320000     0.738368150000    -0.064702   
C45      C      0.363682773333     0.460452320000     0.238368150000    -0.064702   
C45      C      0.363682773333     0.460452320000     0.738368150000    -0.064702   
C45      C      0.363682773333     0.960452320000     0.238368150000    -0.064702   
C45      C      0.363682773333     0.960452320000     0.738368150000    -0.064702   
C45      C      0.697016106667     0.460452320000     0.238368150000    -0.064702   
C45      C      0.697016106667     0.460452320000     0.738368150000    -0.064702   
C45      C      0.697016106667     0.960452320000     0.238368150000    -0.064702   
C45      C      0.697016106667     0.960452320000     0.738368150000    -0.064702   
C46      C      0.085440733333     0.440360800000     0.282826800000     0.308688   
C46      C      0.085440733333     0.440360800000     0.782826800000     0.308688   
C46      C      0.085440733333     0.940360800000     0.282826800000     0.308688   
C46      C      0.085440733333     0.940360800000     0.782826800000     0.308688   
C46      C      0.418774066667     0.440360800000     0.282826800000     0.308688   
C46      C      0.418774066667     0.440360800000     0.782826800000     0.308688   
C46      C      0.418774066667     0.940360800000     0.282826800000     0.308688   
C46      C      0.418774066667     0.940360800000     0.782826800000     0.308688   
C46      C      0.752107400000     0.440360800000     0.282826800000     0.308688   
C46      C      0.752107400000     0.440360800000     0.782826800000     0.308688   
C46      C      0.752107400000     0.940360800000     0.282826800000     0.308688   
C46      C      0.752107400000     0.940360800000     0.782826800000     0.308688   
C47      C      0.181246233333     0.495664650000     0.122259080000     0.228459   
C47      C      0.181246233333     0.495664650000     0.622259080000     0.228459   
C47      C      0.181246233333     0.995664650000     0.122259080000     0.228459   
C47      C      0.181246233333     0.995664650000     0.622259080000     0.228459   
C47      C      0.514579566667     0.495664650000     0.122259080000     0.228459   
C47      C      0.514579566667     0.495664650000     0.622259080000     0.228459   
C47      C      0.514579566667     0.995664650000     0.122259080000     0.228459   
C47      C      0.514579566667     0.995664650000     0.622259080000     0.228459   
C47      C      0.847912900000     0.495664650000     0.122259080000     0.228459   
C47      C      0.847912900000     0.495664650000     0.622259080000     0.228459   
C47      C      0.847912900000     0.995664650000     0.122259080000     0.228459   
C47      C      0.847912900000     0.995664650000     0.622259080000     0.228459   
C48      C      0.194824466667     0.495939950000     0.162084950000     0.242306   
C48      C      0.194824466667     0.495939950000     0.662084950000     0.242306   
C48      C      0.194824466667     0.995939950000     0.162084950000     0.242306   
C48      C      0.194824466667     0.995939950000     0.662084950000     0.242306   
C48      C      0.528157800000     0.495939950000     0.162084950000     0.242306   
C48      C      0.528157800000     0.495939950000     0.662084950000     0.242306   
C48      C      0.528157800000     0.995939950000     0.162084950000     0.242306   
C48      C      0.528157800000     0.995939950000     0.662084950000     0.242306   
C48      C      0.861491133333     0.495939950000     0.162084950000     0.242306   
C48      C      0.861491133333     0.495939950000     0.662084950000     0.242306   
C48      C      0.861491133333     0.995939950000     0.162084950000     0.242306   
C48      C      0.861491133333     0.995939950000     0.662084950000     0.242306   
C49      C      0.168101200000     0.486441015000     0.193134010000    -0.031259   
C49      C      0.168101200000     0.486441015000     0.693134010000    -0.031259   
C49      C      0.168101200000     0.986441015000     0.193134010000    -0.031259   
C49      C      0.168101200000     0.986441015000     0.693134010000    -0.031259   
C49      C      0.501434533333     0.486441015000     0.193134010000    -0.031259   
C49      C      0.501434533333     0.486441015000     0.693134010000    -0.031259   
C49      C      0.501434533333     0.986441015000     0.193134010000    -0.031259   
C49      C      0.501434533333     0.986441015000     0.693134010000    -0.031259   
C49      C      0.834767866667     0.486441015000     0.193134010000    -0.031259   
C49      C      0.834767866667     0.486441015000     0.693134010000    -0.031259   
C49      C      0.834767866667     0.986441015000     0.193134010000    -0.031259   
C49      C      0.834767866667     0.986441015000     0.693134010000    -0.031259   
C50      C      0.126902876667     0.478142380000     0.184672565000     0.418546   
C50      C      0.126902876667     0.478142380000     0.684672565000     0.418546   
C50      C      0.126902876667     0.978142380000     0.184672565000     0.418546   
C50      C      0.126902876667     0.978142380000     0.684672565000     0.418546   
C50      C      0.460236210000     0.478142380000     0.184672565000     0.418546   
C50      C      0.460236210000     0.478142380000     0.684672565000     0.418546   
C50      C      0.460236210000     0.978142380000     0.184672565000     0.418546   
C50      C      0.460236210000     0.978142380000     0.684672565000     0.418546   
C50      C      0.793569543333     0.478142380000     0.184672565000     0.418546   
C50      C      0.793569543333     0.478142380000     0.684672565000     0.418546   
C50      C      0.793569543333     0.978142380000     0.184672565000     0.418546   
C50      C      0.793569543333     0.978142380000     0.684672565000     0.418546   
C51      C      0.112601460000     0.486549600000     0.145392925000     0.382094   
C51      C      0.112601460000     0.486549600000     0.645392925000     0.382094   
C51      C      0.112601460000     0.986549600000     0.145392925000     0.382094   
C51      C      0.112601460000     0.986549600000     0.645392925000     0.382094   
C51      C      0.445934793333     0.486549600000     0.145392925000     0.382094   
C51      C      0.445934793333     0.486549600000     0.645392925000     0.382094   
C51      C      0.445934793333     0.986549600000     0.145392925000     0.382094   
C51      C      0.445934793333     0.986549600000     0.645392925000     0.382094   
C51      C      0.779268126667     0.486549600000     0.145392925000     0.382094   
C51      C      0.779268126667     0.486549600000     0.645392925000     0.382094   
C51      C      0.779268126667     0.986549600000     0.145392925000     0.382094   
C51      C      0.779268126667     0.986549600000     0.645392925000     0.382094   
C52      C      0.099214333333     0.463592975000     0.214247585000    -0.121696   
C52      C      0.099214333333     0.463592975000     0.714247585000    -0.121696   
C52      C      0.099214333333     0.963592975000     0.214247585000    -0.121696   
C52      C      0.099214333333     0.963592975000     0.714247585000    -0.121696   
C52      C      0.432547666667     0.463592975000     0.214247585000    -0.121696   
C52      C      0.432547666667     0.463592975000     0.714247585000    -0.121696   
C52      C      0.432547666667     0.963592975000     0.214247585000    -0.121696   
C52      C      0.432547666667     0.963592975000     0.714247585000    -0.121696   
C52      C      0.765881000000     0.463592975000     0.214247585000    -0.121696   
C52      C      0.765881000000     0.463592975000     0.714247585000    -0.121696   
C52      C      0.765881000000     0.963592975000     0.214247585000    -0.121696   
C52      C      0.765881000000     0.963592975000     0.714247585000    -0.121696   
C53      C      0.057504543333     0.469510000000     0.207235830000    -0.11329    
C53      C      0.057504543333     0.469510000000     0.707235830000    -0.11329    
C53      C      0.057504543333     0.969510000000     0.207235830000    -0.11329    
C53      C      0.057504543333     0.969510000000     0.707235830000    -0.11329    
C53      C      0.390837876667     0.469510000000     0.207235830000    -0.11329    
C53      C      0.390837876667     0.469510000000     0.707235830000    -0.11329    
C53      C      0.390837876667     0.969510000000     0.207235830000    -0.11329    
C53      C      0.390837876667     0.969510000000     0.707235830000    -0.11329    
C53      C      0.724171210000     0.469510000000     0.207235830000    -0.11329    
C53      C      0.724171210000     0.469510000000     0.707235830000    -0.11329    
C53      C      0.724171210000     0.969510000000     0.207235830000    -0.11329    
C53      C      0.724171210000     0.969510000000     0.707235830000    -0.11329    
C54      C      0.043645966667     0.485234650000     0.169599010000    -0.143514   
C54      C      0.043645966667     0.485234650000     0.669599010000    -0.143514   
C54      C      0.043645966667     0.985234650000     0.169599010000    -0.143514   
C54      C      0.043645966667     0.985234650000     0.669599010000    -0.143514   
C54      C      0.376979300000     0.485234650000     0.169599010000    -0.143514   
C54      C      0.376979300000     0.485234650000     0.669599010000    -0.143514   
C54      C      0.376979300000     0.985234650000     0.169599010000    -0.143514   
C54      C      0.376979300000     0.985234650000     0.669599010000    -0.143514   
C54      C      0.710312633333     0.485234650000     0.169599010000    -0.143514   
C54      C      0.710312633333     0.485234650000     0.669599010000    -0.143514   
C54      C      0.710312633333     0.985234650000     0.169599010000    -0.143514   
C54      C      0.710312633333     0.985234650000     0.669599010000    -0.143514   
C55      C      0.071228453333     0.492176115000     0.138593050000    -0.104107   
C55      C      0.071228453333     0.492176115000     0.638593050000    -0.104107   
C55      C      0.071228453333     0.992176115000     0.138593050000    -0.104107   
C55      C      0.071228453333     0.992176115000     0.638593050000    -0.104107   
C55      C      0.404561786667     0.492176115000     0.138593050000    -0.104107   
C55      C      0.404561786667     0.492176115000     0.638593050000    -0.104107   
C55      C      0.404561786667     0.992176115000     0.138593050000    -0.104107   
C55      C      0.404561786667     0.992176115000     0.638593050000    -0.104107   
C55      C      0.737895120000     0.492176115000     0.138593050000    -0.104107   
C55      C      0.737895120000     0.492176115000     0.638593050000    -0.104107   
C55      C      0.737895120000     0.992176115000     0.138593050000    -0.104107   
C55      C      0.737895120000     0.992176115000     0.638593050000    -0.104107   
C56      C      0.103687016667     0.440958700000     0.322916715000    -0.08308    
C56      C      0.103687016667     0.440958700000     0.822916715000    -0.08308    
C56      C      0.103687016667     0.940958700000     0.322916715000    -0.08308    
C56      C      0.103687016667     0.940958700000     0.822916715000    -0.08308    
C56      C      0.437020350000     0.440958700000     0.322916715000    -0.08308    
C56      C      0.437020350000     0.440958700000     0.822916715000    -0.08308    
C56      C      0.437020350000     0.940958700000     0.322916715000    -0.08308    
C56      C      0.437020350000     0.940958700000     0.822916715000    -0.08308    
C56      C      0.770353683333     0.440958700000     0.322916715000    -0.08308    
C56      C      0.770353683333     0.440958700000     0.822916715000    -0.08308    
C56      C      0.770353683333     0.940958700000     0.322916715000    -0.08308    
C56      C      0.770353683333     0.940958700000     0.822916715000    -0.08308    
C57      C      0.111712466667     0.441784000000     0.250031980000    -0.287724   
C57      C      0.111712466667     0.441784000000     0.750031980000    -0.287724   
C57      C      0.111712466667     0.941784000000     0.250031980000    -0.287724   
C57      C      0.111712466667     0.941784000000     0.750031980000    -0.287724   
C57      C      0.445045800000     0.441784000000     0.250031980000    -0.287724   
C57      C      0.445045800000     0.441784000000     0.750031980000    -0.287724   
C57      C      0.445045800000     0.941784000000     0.250031980000    -0.287724   
C57      C      0.445045800000     0.941784000000     0.750031980000    -0.287724   
C57      C      0.778379133333     0.441784000000     0.250031980000    -0.287724   
C57      C      0.778379133333     0.441784000000     0.750031980000    -0.287724   
C57      C      0.778379133333     0.941784000000     0.250031980000    -0.287724   
C57      C      0.778379133333     0.941784000000     0.750031980000    -0.287724   
C58      C      0.044078076667     0.449469800000     0.276891680000    -0.209968   
C58      C      0.044078076667     0.449469800000     0.776891680000    -0.209968   
C58      C      0.044078076667     0.949469800000     0.276891680000    -0.209968   
C58      C      0.044078076667     0.949469800000     0.776891680000    -0.209968   
C58      C      0.377411410000     0.449469800000     0.276891680000    -0.209968   
C58      C      0.377411410000     0.449469800000     0.776891680000    -0.209968   
C58      C      0.377411410000     0.949469800000     0.276891680000    -0.209968   
C58      C      0.377411410000     0.949469800000     0.776891680000    -0.209968   
C58      C      0.710744743333     0.449469800000     0.276891680000    -0.209968   
C58      C      0.710744743333     0.449469800000     0.776891680000    -0.209968   
C58      C      0.710744743333     0.949469800000     0.276891680000    -0.209968   
C58      C      0.710744743333     0.949469800000     0.776891680000    -0.209968   
C59      C      0.140248260000     0.489640800000     0.113725575000    -0.18036    
C59      C      0.140248260000     0.489640800000     0.613725575000    -0.18036    
C59      C      0.140248260000     0.989640800000     0.113725575000    -0.18036    
C59      C      0.140248260000     0.989640800000     0.613725575000    -0.18036    
C59      C      0.473581593333     0.489640800000     0.113725575000    -0.18036    
C59      C      0.473581593333     0.489640800000     0.613725575000    -0.18036    
C59      C      0.473581593333     0.989640800000     0.113725575000    -0.18036    
C59      C      0.473581593333     0.989640800000     0.613725575000    -0.18036    
C59      C      0.806914926667     0.489640800000     0.113725575000    -0.18036    
C59      C      0.806914926667     0.489640800000     0.613725575000    -0.18036    
C59      C      0.806914926667     0.989640800000     0.113725575000    -0.18036    
C59      C      0.806914926667     0.989640800000     0.613725575000    -0.18036    
S60      S      0.258632143333     0.431977300000     0.019065260000    -0.269033   
S60      S      0.258632143333     0.431977300000     0.519065260000    -0.269033   
S60      S      0.258632143333     0.931977300000     0.019065260000    -0.269033   
S60      S      0.258632143333     0.931977300000     0.519065260000    -0.269033   
S60      S      0.591965476667     0.431977300000     0.019065260000    -0.269033   
S60      S      0.591965476667     0.431977300000     0.519065260000    -0.269033   
S60      S      0.591965476667     0.931977300000     0.019065260000    -0.269033   
S60      S      0.591965476667     0.931977300000     0.519065260000    -0.269033   
S60      S      0.925298810000     0.431977300000     0.019065260000    -0.269033   
S60      S      0.925298810000     0.431977300000     0.519065260000    -0.269033   
S60      S      0.925298810000     0.931977300000     0.019065260000    -0.269033   
S60      S      0.925298810000     0.931977300000     0.519065260000    -0.269033   
S61      S      0.268215266667     0.359195920000     0.429386465000    -0.198675   
S61      S      0.268215266667     0.359195920000     0.929386465000    -0.198675   
S61      S      0.268215266667     0.859195920000     0.429386465000    -0.198675   
S61      S      0.268215266667     0.859195920000     0.929386465000    -0.198675   
S61      S      0.601548600000     0.359195920000     0.429386465000    -0.198675   
S61      S      0.601548600000     0.359195920000     0.929386465000    -0.198675   
S61      S      0.601548600000     0.859195920000     0.429386465000    -0.198675   
S61      S      0.601548600000     0.859195920000     0.929386465000    -0.198675   
S61      S      0.934881933333     0.359195920000     0.429386465000    -0.198675   
S61      S      0.934881933333     0.359195920000     0.929386465000    -0.198675   
S61      S      0.934881933333     0.859195920000     0.429386465000    -0.198675   
S61      S      0.934881933333     0.859195920000     0.929386465000    -0.198675   
N62      N      0.154836100000     0.073755100000     0.403136550000    -0.15774    
N62      N      0.154836100000     0.073755100000     0.903136550000    -0.15774    
N62      N      0.154836100000     0.573755100000     0.403136550000    -0.15774    
N62      N      0.154836100000     0.573755100000     0.903136550000    -0.15774    
N62      N      0.488169433333     0.073755100000     0.403136550000    -0.15774    
N62      N      0.488169433333     0.073755100000     0.903136550000    -0.15774    
N62      N      0.488169433333     0.573755100000     0.403136550000    -0.15774    
N62      N      0.488169433333     0.573755100000     0.903136550000    -0.15774    
N62      N      0.821502766667     0.073755100000     0.403136550000    -0.15774    
N62      N      0.821502766667     0.073755100000     0.903136550000    -0.15774    
N62      N      0.821502766667     0.573755100000     0.403136550000    -0.15774    
N62      N      0.821502766667     0.573755100000     0.903136550000    -0.15774    
N63      N      0.143983033333     0.101323375000     0.027473150000    -0.264775   
N63      N      0.143983033333     0.101323375000     0.527473150000    -0.264775   
N63      N      0.143983033333     0.601323375000     0.027473150000    -0.264775   
N63      N      0.143983033333     0.601323375000     0.527473150000    -0.264775   
N63      N      0.477316366667     0.101323375000     0.027473150000    -0.264775   
N63      N      0.477316366667     0.101323375000     0.527473150000    -0.264775   
N63      N      0.477316366667     0.601323375000     0.027473150000    -0.264775   
N63      N      0.477316366667     0.601323375000     0.527473150000    -0.264775   
N63      N      0.810649700000     0.101323375000     0.027473150000    -0.264775   
N63      N      0.810649700000     0.101323375000     0.527473150000    -0.264775   
N63      N      0.810649700000     0.601323375000     0.027473150000    -0.264775   
N63      N      0.810649700000     0.601323375000     0.527473150000    -0.264775   
N64      N      0.078279973333     0.343774765000     0.489604900000    -0.20991    
N64      N      0.078279973333     0.343774765000     0.989604900000    -0.20991    
N64      N      0.078279973333     0.843774765000     0.489604900000    -0.20991    
N64      N      0.078279973333     0.843774765000     0.989604900000    -0.20991    
N64      N      0.411613306667     0.343774765000     0.489604900000    -0.20991    
N64      N      0.411613306667     0.343774765000     0.989604900000    -0.20991    
N64      N      0.411613306667     0.843774765000     0.489604900000    -0.20991    
N64      N      0.411613306667     0.843774765000     0.989604900000    -0.20991    
N64      N      0.744946640000     0.343774765000     0.489604900000    -0.20991    
N64      N      0.744946640000     0.343774765000     0.989604900000    -0.20991    
N64      N      0.744946640000     0.843774765000     0.489604900000    -0.20991    
N64      N      0.744946640000     0.843774765000     0.989604900000    -0.20991    
N65      N      0.156419833333     0.352617920000     0.422417970000    -0.453155   
N65      N      0.156419833333     0.352617920000     0.922417970000    -0.453155   
N65      N      0.156419833333     0.852617920000     0.422417970000    -0.453155   
N65      N      0.156419833333     0.852617920000     0.922417970000    -0.453155   
N65      N      0.489753166667     0.352617920000     0.422417970000    -0.453155   
N65      N      0.489753166667     0.352617920000     0.922417970000    -0.453155   
N65      N      0.489753166667     0.852617920000     0.422417970000    -0.453155   
N65      N      0.489753166667     0.852617920000     0.922417970000    -0.453155   
N65      N      0.823086500000     0.352617920000     0.422417970000    -0.453155   
N65      N      0.823086500000     0.352617920000     0.922417970000    -0.453155   
N65      N      0.823086500000     0.852617920000     0.422417970000    -0.453155   
N65      N      0.823086500000     0.852617920000     0.922417970000    -0.453155   
N66      N      0.016066880000     0.385104600000     0.066293600000    -0.102566   
N66      N      0.016066880000     0.385104600000     0.566293600000    -0.102566   
N66      N      0.016066880000     0.885104600000     0.066293600000    -0.102566   
N66      N      0.016066880000     0.885104600000     0.566293600000    -0.102566   
N66      N      0.349400213333     0.385104600000     0.066293600000    -0.102566   
N66      N      0.349400213333     0.385104600000     0.566293600000    -0.102566   
N66      N      0.349400213333     0.885104600000     0.066293600000    -0.102566   
N66      N      0.349400213333     0.885104600000     0.566293600000    -0.102566   
N66      N      0.682733546667     0.385104600000     0.066293600000    -0.102566   
N66      N      0.682733546667     0.385104600000     0.566293600000    -0.102566   
N66      N      0.682733546667     0.885104600000     0.066293600000    -0.102566   
N66      N      0.682733546667     0.885104600000     0.566293600000    -0.102566   
O67      O      0.185916666667     0.471258430000     0.486061700000    -0.234607   
O67      O      0.185916666667     0.471258430000     0.986061700000    -0.234607   
O67      O      0.185916666667     0.971258430000     0.486061700000    -0.234607   
O67      O      0.185916666667     0.971258430000     0.986061700000    -0.234607   
O67      O      0.519250000000     0.471258430000     0.486061700000    -0.234607   
O67      O      0.519250000000     0.471258430000     0.986061700000    -0.234607   
O67      O      0.519250000000     0.971258430000     0.486061700000    -0.234607   
O67      O      0.519250000000     0.971258430000     0.986061700000    -0.234607   
O67      O      0.852583333333     0.471258430000     0.486061700000    -0.234607   
O67      O      0.852583333333     0.471258430000     0.986061700000    -0.234607   
O67      O      0.852583333333     0.971258430000     0.486061700000    -0.234607   
O67      O      0.852583333333     0.971258430000     0.986061700000    -0.234607   
O68      O      0.294216810000     0.402541400000     0.030026615000    -0.258584   
O68      O      0.294216810000     0.402541400000     0.530026615000    -0.258584   
O68      O      0.294216810000     0.902541400000     0.030026615000    -0.258584   
O68      O      0.294216810000     0.902541400000     0.530026615000    -0.258584   
O68      O      0.627550143333     0.402541400000     0.030026615000    -0.258584   
O68      O      0.627550143333     0.402541400000     0.530026615000    -0.258584   
O68      O      0.627550143333     0.902541400000     0.030026615000    -0.258584   
O68      O      0.627550143333     0.902541400000     0.530026615000    -0.258584   
O68      O      0.960883476667     0.402541400000     0.030026615000    -0.258584   
O68      O      0.960883476667     0.402541400000     0.530026615000    -0.258584   
O68      O      0.960883476667     0.902541400000     0.030026615000    -0.258584   
O68      O      0.960883476667     0.902541400000     0.530026615000    -0.258584   
O69      O      0.259364000000     0.476976750000     0.044259430000    -0.245951   
O69      O      0.259364000000     0.476976750000     0.544259430000    -0.245951   
O69      O      0.259364000000     0.976976750000     0.044259430000    -0.245951   
O69      O      0.259364000000     0.976976750000     0.544259430000    -0.245951   
O69      O      0.592697333333     0.476976750000     0.044259430000    -0.245951   
O69      O      0.592697333333     0.476976750000     0.544259430000    -0.245951   
O69      O      0.592697333333     0.976976750000     0.044259430000    -0.245951   
O69      O      0.592697333333     0.976976750000     0.544259430000    -0.245951   
O69      O      0.926030666667     0.476976750000     0.044259430000    -0.245951   
O69      O      0.926030666667     0.476976750000     0.544259430000    -0.245951   
O69      O      0.926030666667     0.976976750000     0.044259430000    -0.245951   
O69      O      0.926030666667     0.976976750000     0.544259430000    -0.245951   
O70      O      0.216739080000     0.400552570000     0.029422760000    -0.258104   
O70      O      0.216739080000     0.400552570000     0.529422760000    -0.258104   
O70      O      0.216739080000     0.900552570000     0.029422760000    -0.258104   
O70      O      0.216739080000     0.900552570000     0.529422760000    -0.258104   
O70      O      0.550072413333     0.400552570000     0.029422760000    -0.258104   
O70      O      0.550072413333     0.400552570000     0.529422760000    -0.258104   
O70      O      0.550072413333     0.900552570000     0.029422760000    -0.258104   
O70      O      0.550072413333     0.900552570000     0.529422760000    -0.258104   
O70      O      0.883405746667     0.400552570000     0.029422760000    -0.258104   
O70      O      0.883405746667     0.400552570000     0.529422760000    -0.258104   
O70      O      0.883405746667     0.900552570000     0.029422760000    -0.258104   
O70      O      0.883405746667     0.900552570000     0.529422760000    -0.258104   
O71      O      0.225824300000     0.352887850000     0.443267735000    -0.254321   
O71      O      0.225824300000     0.352887850000     0.943267735000    -0.254321   
O71      O      0.225824300000     0.852887850000     0.443267735000    -0.254321   
O71      O      0.225824300000     0.852887850000     0.943267735000    -0.254321   
O71      O      0.559157633333     0.352887850000     0.443267735000    -0.254321   
O71      O      0.559157633333     0.352887850000     0.943267735000    -0.254321   
O71      O      0.559157633333     0.852887850000     0.443267735000    -0.254321   
O71      O      0.559157633333     0.852887850000     0.943267735000    -0.254321   
O71      O      0.892490966667     0.352887850000     0.443267735000    -0.254321   
O71      O      0.892490966667     0.352887850000     0.943267735000    -0.254321   
O71      O      0.892490966667     0.852887850000     0.443267735000    -0.254321   
O71      O      0.892490966667     0.852887850000     0.943267735000    -0.254321   
O72      O      0.269560733333     0.350448130000     0.384497800000    -0.176973   
O72      O      0.269560733333     0.350448130000     0.884497800000    -0.176973   
O72      O      0.269560733333     0.850448130000     0.384497800000    -0.176973   
O72      O      0.269560733333     0.850448130000     0.884497800000    -0.176973   
O72      O      0.602894066667     0.350448130000     0.384497800000    -0.176973   
O72      O      0.602894066667     0.350448130000     0.884497800000    -0.176973   
O72      O      0.602894066667     0.850448130000     0.384497800000    -0.176973   
O72      O      0.602894066667     0.850448130000     0.884497800000    -0.176973   
O72      O      0.936227400000     0.350448130000     0.384497800000    -0.176973   
O72      O      0.936227400000     0.350448130000     0.884497800000    -0.176973   
O72      O      0.936227400000     0.850448130000     0.384497800000    -0.176973   
O72      O      0.936227400000     0.850448130000     0.884497800000    -0.176973   
O73      O      0.296390613333     0.318599500000     0.452641900000    -0.289359   
O73      O      0.296390613333     0.318599500000     0.952641900000    -0.289359   
O73      O      0.296390613333     0.818599500000     0.452641900000    -0.289359   
O73      O      0.296390613333     0.818599500000     0.952641900000    -0.289359   
O73      O      0.629723946667     0.318599500000     0.452641900000    -0.289359   
O73      O      0.629723946667     0.318599500000     0.952641900000    -0.289359   
O73      O      0.629723946667     0.818599500000     0.452641900000    -0.289359   
O73      O      0.629723946667     0.818599500000     0.952641900000    -0.289359   
O73      O      0.963057280000     0.318599500000     0.452641900000    -0.289359   
O73      O      0.963057280000     0.318599500000     0.952641900000    -0.289359   
O73      O      0.963057280000     0.818599500000     0.452641900000    -0.289359   
O73      O      0.963057280000     0.818599500000     0.952641900000    -0.289359   
O74      O      0.014059820000     0.371259420000     0.405545050000    -0.282442   
O74      O      0.014059820000     0.371259420000     0.905545050000    -0.282442   
O74      O      0.014059820000     0.871259420000     0.405545050000    -0.282442   
O74      O      0.014059820000     0.871259420000     0.905545050000    -0.282442   
O74      O      0.347393153333     0.371259420000     0.405545050000    -0.282442   
O74      O      0.347393153333     0.371259420000     0.905545050000    -0.282442   
O74      O      0.347393153333     0.871259420000     0.405545050000    -0.282442   
O74      O      0.347393153333     0.871259420000     0.905545050000    -0.282442   
O74      O      0.680726486667     0.371259420000     0.405545050000    -0.282442   
O74      O      0.680726486667     0.371259420000     0.905545050000    -0.282442   
O74      O      0.680726486667     0.871259420000     0.405545050000    -0.282442   
O74      O      0.680726486667     0.871259420000     0.905545050000    -0.282442   
O75      O      0.052497030000     0.436648665000     0.410610525000    -0.21073    
O75      O      0.052497030000     0.436648665000     0.910610525000    -0.21073    
O75      O      0.052497030000     0.936648665000     0.410610525000    -0.21073    
O75      O      0.052497030000     0.936648665000     0.910610525000    -0.21073    
O75      O      0.385830363333     0.436648665000     0.410610525000    -0.21073    
O75      O      0.385830363333     0.436648665000     0.910610525000    -0.21073    
O75      O      0.385830363333     0.936648665000     0.410610525000    -0.21073    
O75      O      0.385830363333     0.936648665000     0.910610525000    -0.21073    
O75      O      0.719163696667     0.436648665000     0.410610525000    -0.21073    
O75      O      0.719163696667     0.436648665000     0.910610525000    -0.21073    
O75      O      0.719163696667     0.936648665000     0.410610525000    -0.21073    
O75      O      0.719163696667     0.936648665000     0.910610525000    -0.21073    
O76      O      0.212477566667     0.044426440000     0.486273850000    -0.231373   
O76      O      0.212477566667     0.044426440000     0.986273850000    -0.231373   
O76      O      0.212477566667     0.544426440000     0.486273850000    -0.231373   
O76      O      0.212477566667     0.544426440000     0.986273850000    -0.231373   
O76      O      0.545810900000     0.044426440000     0.486273850000    -0.231373   
O76      O      0.545810900000     0.044426440000     0.986273850000    -0.231373   
O76      O      0.545810900000     0.544426440000     0.486273850000    -0.231373   
O76      O      0.545810900000     0.544426440000     0.986273850000    -0.231373   
O76      O      0.879144233333     0.044426440000     0.486273850000    -0.231373   
O76      O      0.879144233333     0.044426440000     0.986273850000    -0.231373   
O76      O      0.879144233333     0.544426440000     0.486273850000    -0.231373   
O76      O      0.879144233333     0.544426440000     0.986273850000    -0.231373   
O77      O      0.158249526667     0.232386900000     0.338151000000    -0.230964   
O77      O      0.158249526667     0.232386900000     0.838151000000    -0.230964   
O77      O      0.158249526667     0.732386900000     0.338151000000    -0.230964   
O77      O      0.158249526667     0.732386900000     0.838151000000    -0.230964   
O77      O      0.491582860000     0.232386900000     0.338151000000    -0.230964   
O77      O      0.491582860000     0.232386900000     0.838151000000    -0.230964   
O77      O      0.491582860000     0.732386900000     0.338151000000    -0.230964   
O77      O      0.491582860000     0.732386900000     0.838151000000    -0.230964   
O77      O      0.824916193333     0.232386900000     0.338151000000    -0.230964   
O77      O      0.824916193333     0.232386900000     0.838151000000    -0.230964   
O77      O      0.824916193333     0.732386900000     0.338151000000    -0.230964   
O77      O      0.824916193333     0.732386900000     0.838151000000    -0.230964   
O78      O      0.066086213333     0.182631030000     0.050136150000    -0.22388    
O78      O      0.066086213333     0.182631030000     0.550136150000    -0.22388    
O78      O      0.066086213333     0.682631030000     0.050136150000    -0.22388    
O78      O      0.066086213333     0.682631030000     0.550136150000    -0.22388    
O78      O      0.399419546667     0.182631030000     0.050136150000    -0.22388    
O78      O      0.399419546667     0.182631030000     0.550136150000    -0.22388    
O78      O      0.399419546667     0.682631030000     0.050136150000    -0.22388    
O78      O      0.399419546667     0.682631030000     0.550136150000    -0.22388    
O78      O      0.732752880000     0.182631030000     0.050136150000    -0.22388    
O78      O      0.732752880000     0.182631030000     0.550136150000    -0.22388    
O78      O      0.732752880000     0.682631030000     0.050136150000    -0.22388    
O78      O      0.732752880000     0.682631030000     0.550136150000    -0.22388    
O79      O      0.199248700000     0.156658190000     0.331563175000    -0.437636   
O79      O      0.199248700000     0.156658190000     0.831563175000    -0.437636   
O79      O      0.199248700000     0.656658190000     0.331563175000    -0.437636   
O79      O      0.199248700000     0.656658190000     0.831563175000    -0.437636   
O79      O      0.532582033333     0.156658190000     0.331563175000    -0.437636   
O79      O      0.532582033333     0.156658190000     0.831563175000    -0.437636   
O79      O      0.532582033333     0.656658190000     0.331563175000    -0.437636   
O79      O      0.532582033333     0.656658190000     0.831563175000    -0.437636   
O79      O      0.865915366667     0.156658190000     0.331563175000    -0.437636   
O79      O      0.865915366667     0.156658190000     0.831563175000    -0.437636   
O79      O      0.865915366667     0.656658190000     0.331563175000    -0.437636   
O79      O      0.865915366667     0.656658190000     0.831563175000    -0.437636   
O80      O      0.099044123333     0.280969500000     0.379619865000    -0.413731   
O80      O      0.099044123333     0.280969500000     0.879619865000    -0.413731   
O80      O      0.099044123333     0.780969500000     0.379619865000    -0.413731   
O80      O      0.099044123333     0.780969500000     0.879619865000    -0.413731   
O80      O      0.432377456667     0.280969500000     0.379619865000    -0.413731   
O80      O      0.432377456667     0.280969500000     0.879619865000    -0.413731   
O80      O      0.432377456667     0.780969500000     0.379619865000    -0.413731   
O80      O      0.432377456667     0.780969500000     0.879619865000    -0.413731   
O80      O      0.765710790000     0.280969500000     0.379619865000    -0.413731   
O80      O      0.765710790000     0.280969500000     0.879619865000    -0.413731   
O80      O      0.765710790000     0.780969500000     0.379619865000    -0.413731   
O80      O      0.765710790000     0.780969500000     0.879619865000    -0.413731   
O81      O      0.027463546667     0.258158500000     0.056089640000     0.796795   
O81      O      0.027463546667     0.258158500000     0.556089640000     0.796795   
O81      O      0.027463546667     0.758158500000     0.056089640000     0.796795   
O81      O      0.027463546667     0.758158500000     0.556089640000     0.796795   
O81      O      0.360796880000     0.258158500000     0.056089640000     0.796795   
O81      O      0.360796880000     0.258158500000     0.556089640000     0.796795   
O81      O      0.360796880000     0.758158500000     0.056089640000     0.796795   
O81      O      0.360796880000     0.758158500000     0.556089640000     0.796795   
O81      O      0.694130213333     0.258158500000     0.056089640000     0.796795   
O81      O      0.694130213333     0.258158500000     0.556089640000     0.796795   
O81      O      0.694130213333     0.758158500000     0.056089640000     0.796795   
O81      O      0.694130213333     0.758158500000     0.556089640000     0.796795   
O82      O      0.146543066667     0.000319960000     0.043174830000     0.821197   
O82      O      0.146543066667     0.000319960000     0.543174830000     0.821197   
O82      O      0.146543066667     0.500319960000     0.043174830000     0.821197   
O82      O      0.146543066667     0.500319960000     0.543174830000     0.821197   
O82      O      0.479876400000     0.000319960000     0.043174830000     0.821197   
O82      O      0.479876400000     0.000319960000     0.543174830000     0.821197   
O82      O      0.479876400000     0.500319960000     0.043174830000     0.821197   
O82      O      0.479876400000     0.500319960000     0.543174830000     0.821197   
O82      O      0.813209733333     0.000319960000     0.043174830000     0.821197   
O82      O      0.813209733333     0.000319960000     0.543174830000     0.821197   
O82      O      0.813209733333     0.500319960000     0.043174830000     0.821197   
O82      O      0.813209733333     0.500319960000     0.543174830000     0.821197   
O83      O      0.149128133333     0.421111100000     0.252110630000     0.167842   
O83      O      0.149128133333     0.421111100000     0.752110630000     0.167842   
O83      O      0.149128133333     0.921111100000     0.252110630000     0.167842   
O83      O      0.149128133333     0.921111100000     0.752110630000     0.167842   
O83      O      0.482461466667     0.421111100000     0.252110630000     0.167842   
O83      O      0.482461466667     0.421111100000     0.752110630000     0.167842   
O83      O      0.482461466667     0.921111100000     0.252110630000     0.167842   
O83      O      0.482461466667     0.921111100000     0.752110630000     0.167842   
O83      O      0.815794800000     0.421111100000     0.252110630000     0.167842   
O83      O      0.815794800000     0.421111100000     0.752110630000     0.167842   
O83      O      0.815794800000     0.921111100000     0.252110630000     0.167842   
O83      O      0.815794800000     0.921111100000     0.752110630000     0.167842   
O84      O      0.016275443333     0.449662180000     0.307522180000     0.161342   
O84      O      0.016275443333     0.449662180000     0.807522180000     0.161342   
O84      O      0.016275443333     0.949662180000     0.307522180000     0.161342   
O84      O      0.016275443333     0.949662180000     0.807522180000     0.161342   
O84      O      0.349608776667     0.449662180000     0.307522180000     0.161342   
O84      O      0.349608776667     0.449662180000     0.807522180000     0.161342   
O84      O      0.349608776667     0.949662180000     0.307522180000     0.161342   
O84      O      0.349608776667     0.949662180000     0.807522180000     0.161342   
O84      O      0.682942110000     0.449662180000     0.307522180000     0.161342   
O84      O      0.682942110000     0.449662180000     0.807522180000     0.161342   
O84      O      0.682942110000     0.949662180000     0.307522180000     0.161342   
O84      O      0.682942110000     0.949662180000     0.807522180000     0.161342   
O85      O      0.097815366667     0.448855430000     0.066422155000     0.177223   
O85      O      0.097815366667     0.448855430000     0.566422155000     0.177223   
O85      O      0.097815366667     0.948855430000     0.066422155000     0.177223   
O85      O      0.097815366667     0.948855430000     0.566422155000     0.177223   
O85      O      0.431148700000     0.448855430000     0.066422155000     0.177223   
O85      O      0.431148700000     0.448855430000     0.566422155000     0.177223   
O85      O      0.431148700000     0.948855430000     0.066422155000     0.177223   
O85      O      0.431148700000     0.948855430000     0.566422155000     0.177223   
O85      O      0.764482033333     0.448855430000     0.066422155000     0.177223   
O85      O      0.764482033333     0.448855430000     0.566422155000     0.177223   
O85      O      0.764482033333     0.948855430000     0.066422155000     0.177223   
O85      O      0.764482033333     0.948855430000     0.566422155000     0.177223   
O86      O      0.134991546667     0.469014170000     0.328470000000     0.161035   
O86      O      0.134991546667     0.469014170000     0.828470000000     0.161035   
O86      O      0.134991546667     0.969014170000     0.328470000000     0.161035   
O86      O      0.134991546667     0.969014170000     0.828470000000     0.161035   
O86      O      0.468324880000     0.469014170000     0.328470000000     0.161035   
O86      O      0.468324880000     0.469014170000     0.828470000000     0.161035   
O86      O      0.468324880000     0.969014170000     0.328470000000     0.161035   
O86      O      0.468324880000     0.969014170000     0.828470000000     0.161035   
O86      O      0.801658213333     0.469014170000     0.328470000000     0.161035   
O86      O      0.801658213333     0.469014170000     0.828470000000     0.161035   
O86      O      0.801658213333     0.969014170000     0.328470000000     0.161035   
O86      O      0.801658213333     0.969014170000     0.828470000000     0.161035   
O87      O      0.086263856667     0.417549670000     0.351717350000     0.160815   
O87      O      0.086263856667     0.417549670000     0.851717350000     0.160815   
O87      O      0.086263856667     0.917549670000     0.351717350000     0.160815   
O87      O      0.086263856667     0.917549670000     0.851717350000     0.160815   
O87      O      0.419597190000     0.417549670000     0.351717350000     0.160815   
O87      O      0.419597190000     0.417549670000     0.851717350000     0.160815   
O87      O      0.419597190000     0.917549670000     0.351717350000     0.160815   
O87      O      0.419597190000     0.917549670000     0.851717350000     0.160815   
O87      O      0.752930523333     0.417549670000     0.351717350000     0.160815   
O87      O      0.752930523333     0.417549670000     0.851717350000     0.160815   
O87      O      0.752930523333     0.917549670000     0.351717350000     0.160815   
O87      O      0.752930523333     0.917549670000     0.851717350000     0.160815   
O88      O      0.003217830000     0.492990165000     0.163587450000     0.166977   
O88      O      0.003217830000     0.492990165000     0.663587450000     0.166977   
O88      O      0.003217830000     0.992990165000     0.163587450000     0.166977   
O88      O      0.003217830000     0.992990165000     0.663587450000     0.166977   
O88      O      0.336551163333     0.492990165000     0.163587450000     0.166977   
O88      O      0.336551163333     0.492990165000     0.663587450000     0.166977   
O88      O      0.336551163333     0.992990165000     0.163587450000     0.166977   
O88      O      0.336551163333     0.992990165000     0.663587450000     0.166977   
O88      O      0.669884496667     0.492990165000     0.163587450000     0.166977   
O88      O      0.669884496667     0.492990165000     0.663587450000     0.166977   
O88      O      0.669884496667     0.992990165000     0.163587450000     0.166977   
O88      O      0.669884496667     0.992990165000     0.663587450000     0.166977   
F89      F      0.244023333333     0.489353120000     0.409078750000     0.163391   
F89      F      0.244023333333     0.489353120000     0.909078750000     0.163391   
F89      F      0.244023333333     0.989353120000     0.409078750000     0.163391   
F89      F      0.244023333333     0.989353120000     0.909078750000     0.163391   
F89      F      0.577356666667     0.489353120000     0.409078750000     0.163391   
F89      F      0.577356666667     0.489353120000     0.909078750000     0.163391   
F89      F      0.577356666667     0.989353120000     0.409078750000     0.163391   
F89      F      0.577356666667     0.989353120000     0.909078750000     0.163391   
F89      F      0.910690000000     0.489353120000     0.409078750000     0.163391   
F89      F      0.910690000000     0.489353120000     0.909078750000     0.163391   
F89      F      0.910690000000     0.989353120000     0.409078750000     0.163391   
F89      F      0.910690000000     0.989353120000     0.909078750000     0.163391   
F90      F      0.324315366667     0.487618685000     0.433716415000     0.077276   
F90      F      0.324315366667     0.487618685000     0.933716415000     0.077276   
F90      F      0.324315366667     0.987618685000     0.433716415000     0.077276   
F90      F      0.324315366667     0.987618685000     0.933716415000     0.077276   
F90      F      0.657648700000     0.487618685000     0.433716415000     0.077276   
F90      F      0.657648700000     0.487618685000     0.933716415000     0.077276   
F90      F      0.657648700000     0.987618685000     0.433716415000     0.077276   
F90      F      0.657648700000     0.987618685000     0.933716415000     0.077276   
F90      F      0.990982033333     0.487618685000     0.433716415000     0.077276   
F90      F      0.990982033333     0.487618685000     0.933716415000     0.077276   
F90      F      0.990982033333     0.987618685000     0.433716415000     0.077276   
F90      F      0.990982033333     0.987618685000     0.933716415000     0.077276   


