# generated using pymatgen
data_Zn4H58C93SN4(ClO18)2
_symmetry_space_group_name_H-M   'P 1'
_cell_length_a   27.26848769
_cell_length_b   32.02102545
_cell_length_c   43.02996710
_cell_angle_alpha   93.52882555
_cell_angle_beta   91.68854874
_cell_angle_gamma   96.08631464
_symmetry_Int_Tables_number   1
_chemical_formula_structural   Zn4H58C93SN4(ClO18)2
_chemical_formula_sum   'Zn48 H696 C1116 S12 N48 Cl24 O432'
_cell_volume   37265.10875407
_cell_formula_units_Z   12
loop_
 _symmetry_equiv_pos_site_id
 _symmetry_equiv_pos_as_xyz
  1  'x, y, z'
loop_
 _atom_site_type_symbol
 _atom_site_label
 _atom_site_symmetry_multiplicity
 _atom_site_fract_x
 _atom_site_fract_y
 _atom_site_fract_z
 _atom_site_occupancy
  H  H0  1  0.02743120  0.03480770  0.04581130  1
  Cl  Cl1  1  0.01541380  0.04853630  0.12616900  1
  H  H2  1  0.04906410  0.10550700  0.02736310  1
  H  H3  1  0.05778490  0.07203260  0.07543010  1
  H  H4  1  0.11120300  0.10551700  0.03591780  1
  H  H5  1  0.07945360  0.06994070  0.00577870  1
  C  C6  1  0.10360500  0.02570440  0.05752210  1
  C  C7  1  0.06253120  0.05415900  0.05324440  1
  C  C8  1  0.07577480  0.08624100  0.02902120  1
  C  C9  1  0.12552200  0.12771700  0.11646800  1
  H  H10  1  0.11560100  0.01847740  0.03383360  1
  C  C11  1  0.13992000  0.12785200  0.14855700  1
  H  H12  1  0.13628400  0.04259610  0.07064030  1
  Zn  Zn13  1  0.24603900  0.02617540  0.09791800  1
  H  H14  1  0.14204300  0.10995200  0.10000000  1
  C  C15  1  0.18782400  0.06871740  0.13853500  1
  O  O16  1  0.23223100  0.05788870  0.13274500  1
  O  O17  1  0.14935600  0.04351240  0.12857900  1
  H  H18  1  0.18877400  0.04198320  0.01807290  1
  C  C19  1  0.25028500  0.07916330  0.06448200  1
  C  C20  1  0.23060500  0.10288700  0.01280750  1
  C  C21  1  0.20024000  0.06599310  0.00282383  1
  C  C22  1  0.24893600  0.11078200  0.04444470  1
  O  O23  1  0.24318500  0.03890920  0.05745470  1
  O  O24  1  0.26088400  0.08503920  0.09377300  1
  C  C25  1  0.17924200  0.10473400  0.15699900  1
  N  N26  1  0.31258300  0.00564257  0.10727600  1
  H  H27  1  0.36075200  0.03479170  0.04580900  1
  H  H28  1  0.39110300  0.07202340  0.07542450  1
  H  H29  1  0.38237100  0.10549000  0.02735500  1
  H  H30  1  0.41276500  0.06992480  0.00577215  1
  C  C31  1  0.39585000  0.05414770  0.05323990  1
  C  C32  1  0.40908600  0.08622750  0.02901370  1
  Cl  Cl33  1  0.34875100  0.04853320  0.12617100  1
  H  H34  1  0.44892600  0.01847190  0.03383030  1
  H  H35  1  0.46960700  0.04259540  0.07063630  1
  H  H36  1  0.44451200  0.10550800  0.03590800  1
  C  C37  1  0.43693000  0.02569920  0.05751860  1
  H  H38  1  0.47536800  0.10995000  0.09999830  1
  C  C39  1  0.52115300  0.06871660  0.13853300  1
  C  C40  1  0.45884500  0.12771100  0.11646700  1
  O  O41  1  0.48268600  0.04351100  0.12857700  1
  C  C42  1  0.51257000  0.10473300  0.15699700  1
  C  C43  1  0.47324500  0.12784800  0.14855500  1
  H  H44  1  0.52209700  0.04198550  0.01807390  1
  C  C45  1  0.56393300  0.10288600  0.01280490  1
  C  C46  1  0.53356300  0.06599360  0.00282343  1
  O  O47  1  0.56556100  0.05788890  0.13274300  1
  O  O48  1  0.57651500  0.03890920  0.05745230  1
  N  N49  1  0.64591500  0.00564468  0.10727400  1
  Zn  Zn50  1  0.57937000  0.02617600  0.09791570  1
  C  C51  1  0.58361500  0.07916330  0.06447930  1
  C  C52  1  0.58226500  0.11078200  0.04444150  1
  O  O53  1  0.59421400  0.08504000  0.09377030  1
  H  H54  1  0.69409500  0.03479630  0.04579910  1
  H  H55  1  0.71571900  0.10549500  0.02734820  1
  Cl  Cl56  1  0.68208400  0.04853640  0.12616700  1
  H  H57  1  0.72443200  0.07202830  0.07541920  1
  C  C58  1  0.72919000  0.05415370  0.05323560  1
  C  C59  1  0.74243400  0.08623440  0.02901130  1
  H  H60  1  0.74612300  0.06993230  0.00577065  1
  C  C61  1  0.77026900  0.02570690  0.05752090  1
  H  H62  1  0.80870400  0.10994800  0.09999520  1
  C  C63  1  0.79218400  0.12771400  0.11646300  1
  H  H64  1  0.80294200  0.04260330  0.07064260  1
  H  H65  1  0.78227600  0.01848210  0.03383480  1
  H  H66  1  0.77785700  0.10551600  0.03591080  1
  N  N67  1  0.97924800  0.00564357  0.10727500  1
  Zn  Zn68  1  0.91270300  0.02617290  0.09791450  1
  C  C69  1  0.85448700  0.06871680  0.13853100  1
  O  O70  1  0.89889500  0.05788900  0.13274000  1
  O  O71  1  0.81602000  0.04351010  0.12857800  1
  H  H72  1  0.85544900  0.04196330  0.01806130  1
  C  C73  1  0.91694600  0.07915550  0.06447430  1
  C  C74  1  0.89726900  0.10287200  0.01279680  1
  C  C75  1  0.86690900  0.06597530  0.00281276  1
  C  C76  1  0.91559700  0.11077200  0.04443450  1
  O  O77  1  0.90985100  0.03890080  0.05744970  1
  O  O78  1  0.92754200  0.08503590  0.09376550  1
  C  C79  1  0.80658400  0.12785300  0.14855100  1
  C  C80  1  0.84590600  0.10473400  0.15699400  1
  O  O81  1  0.03527450  0.14755200  0.15647200  1
  O  O82  1  0.09422930  0.15086700  0.10638400  1
  C  C83  1  0.07204930  0.17063100  0.16559900  1
  H  H84  1  0.00539621  0.22399700  0.06037100  1
  O  O85  1  0.36859600  0.14753900  0.15647400  1
  O  O86  1  0.42754700  0.15085800  0.10638300  1
  H  H87  1  0.28016500  0.20303700  0.09175450  1
  C  C88  1  0.26752300  0.15351800  0.05418790  1
  C  C89  1  0.28641500  0.18020900  0.03124930  1
  C  C90  1  0.26241400  0.17194800  0.08461090  1
  O  O91  1  0.23400300  0.15586400  0.10287600  1
  C  C92  1  0.40536900  0.17062100  0.16559900  1
  H  H93  1  0.29710400  0.35682800  0.12145400  1
  C  C94  1  0.23166100  0.35532600  0.14873700  1
  H  H95  1  0.23036300  0.32847600  0.06133610  1
  H  H96  1  0.22627300  0.30114800  0.01472820  1
  H  H97  1  0.22985900  0.32054000  0.14871400  1
  H  H98  1  0.31646500  0.35155400  0.07033060  1
  O  O99  1  0.32674500  0.24671500  0.02070150  1
  H  H100  1  0.33874000  0.22400800  0.06038190  1
  C  C101  1  0.32002600  0.21948800  0.03925330  1
  C  C102  1  0.27184200  0.17027700  0.00010678  1
  O  O103  1  0.70194000  0.14756100  0.15646700  1
  H  H104  1  0.61349700  0.20303700  0.09174900  1
  C  C105  1  0.60085300  0.15351700  0.05418360  1
  C  C106  1  0.61974800  0.18020600  0.03124420  1
  C  C107  1  0.59574500  0.17194800  0.08460610  1
  O  O108  1  0.56733300  0.15586600  0.10287100  1
  C  C109  1  0.56492900  0.35535000  0.14870900  1
  H  H110  1  0.56370500  0.32847100  0.06132830  1
  H  H111  1  0.55961600  0.30114400  0.01472030  1
  H  H112  1  0.56308800  0.32056000  0.14866700  1
  H  H113  1  0.67207400  0.22400400  0.06037610  1
  C  C114  1  0.65336100  0.21948400  0.03924730  1
  H  H115  1  0.63040800  0.35681400  0.12145800  1
  O  O116  1  0.66008300  0.24671000  0.02069470  1
  H  H117  1  0.64980400  0.35155400  0.07032890  1
  C  C118  1  0.60517300  0.17027300  0.00010170  1
  O  O119  1  0.76089100  0.15086300  0.10637700  1
  C  C120  1  0.73871800  0.17063800  0.16559200  1
  H  H121  1  0.94681100  0.20303300  0.09173900  1
  C  C122  1  0.93418000  0.15350800  0.05417600  1
  C  C123  1  0.95307600  0.18019700  0.03123680  1
  C  C124  1  0.92906400  0.17194200  0.08459710  1
  O  O125  1  0.90065300  0.15585900  0.10286200  1
  H  H126  1  0.98307700  0.35146200  0.07029490  1
  C  C127  1  0.98668800  0.21947500  0.03924040  1
  H  H128  1  0.96394400  0.35683200  0.12136900  1
  C  C129  1  0.89876900  0.35505800  0.14888700  1
  H  H130  1  0.89696000  0.32843700  0.06133720  1
  H  H131  1  0.89284900  0.30109900  0.01473200  1
  O  O132  1  0.99341600  0.24669800  0.02068620  1
  H  H133  1  0.89725500  0.32030100  0.14900900  1
  C  C134  1  0.93850500  0.17026200  0.00009424  1
  C  C135  1  0.04623930  0.46022200  0.10653000  1
  Cl  Cl136  1  0.06121860  0.40784600  0.10683400  1
  H  H137  1  0.07248400  0.44257900  0.01064500  1
  H  H138  1  0.15789300  0.46916600  0.02611580  1
  C  C139  1  0.17466800  0.46445200  0.16511000  1
  O  O140  1  0.13143800  0.45452600  0.15109100  1
  N  N141  1  0.08556610  0.49099000  0.09781850  1
  H  H142  1  0.02741430  0.53480400  0.04581740  1
  C  C143  1  0.10359000  0.52571200  0.05753100  1
  C  C144  1  0.06250850  0.55416000  0.05325690  1
  O  O145  1  0.08730900  0.48641600  0.06915440  1
  Cl  Cl146  1  0.01539240  0.54852500  0.12618600  1
  H  H147  1  0.13626800  0.54260700  0.07064740  1
  H  H148  1  0.11558400  0.51848700  0.03384150  1
  Zn  Zn149  1  0.15401600  0.49416800  0.11868900  1
  C  C150  1  0.18781800  0.56872800  0.13853300  1
  O  O151  1  0.14935000  0.54352000  0.12858200  1
  C  C152  1  0.17243500  0.44024100  0.02034970  1
  H  H153  1  0.18875300  0.54200200  0.01807810  1
  H  H154  1  0.30036600  0.35051400  0.02975030  1
  H  H155  1  0.20494000  0.36364000  0.13079800  1
  C  C156  1  0.24235900  0.36054700  0.06036440  1
  H  H157  1  0.30853100  0.36711400  0.16226000  1
  H  H158  1  0.25431100  0.43355500  0.14519200  1
  H  H159  1  0.31834000  0.43607200  0.15568300  1
  C  C160  1  0.33000100  0.46666400  0.10686900  1
  C  C161  1  0.28868600  0.42146800  0.13874300  1
  C  C162  1  0.28423100  0.37367300  0.14235000  1
  O  O163  1  0.29630500  0.43128700  0.10748300  1
  H  H164  1  0.30687100  0.39809100  0.05248380  1
  H  H165  1  0.23827800  0.37361100  0.08275220  1
  C  C166  1  0.20087300  0.44049900  0.07700400  1
  C  C167  1  0.19662700  0.42121400  0.04388550  1
  C  C168  1  0.21209500  0.38081000  0.03648950  1
  C  C169  1  0.29409900  0.36594800  0.05286630  1
  O  O170  1  0.19116700  0.47885700  0.08479530  1
  C  C171  1  0.20401400  0.36143200  0.00560019  1
  O  O172  1  0.19344100  0.48032300  0.08446020  1
  C  C173  1  0.37956700  0.46022100  0.10651900  1
  Cl  Cl174  1  0.39453800  0.40784300  0.10683300  1
  H  H175  1  0.40581800  0.44254000  0.01064060  1
  O  O176  1  0.46475900  0.45452800  0.15108600  1
  O  O177  1  0.20174000  0.48819200  0.14827700  1
  N  N178  1  0.31257700  0.50564800  0.10727500  1
  Zn  Zn179  1  0.24603300  0.52618300  0.09791740  1
  O  O180  1  0.23222600  0.55790000  0.13274200  1
  O  O181  1  0.24317600  0.53891600  0.05745390  1
  Cl  Cl182  1  0.34874600  0.54853800  0.12617000  1
  N  N183  1  0.41889700  0.49098300  0.09780430  1
  H  H184  1  0.44891300  0.51846900  0.03382470  1
  H  H185  1  0.46960500  0.54259200  0.07062940  1
  H  H186  1  0.36074600  0.53479900  0.04581090  1
  C  C187  1  0.43692300  0.52569800  0.05751460  1
  C  C188  1  0.39584700  0.55415200  0.05324040  1
  O  O189  1  0.42063900  0.48640500  0.06914070  1
  O  O190  1  0.48268200  0.54351600  0.12857200  1
  H  H191  1  0.63371100  0.35050800  0.02974680  1
  H  H192  1  0.53823400  0.36370300  0.13076900  1
  C  C193  1  0.57570000  0.36054200  0.06035690  1
  H  H194  1  0.64178700  0.36708700  0.16226900  1
  H  H195  1  0.49123300  0.46915900  0.02610850  1
  C  C196  1  0.53420400  0.44049100  0.07699740  1
  C  C197  1  0.52996600  0.42120700  0.04387820  1
  C  C198  1  0.54543600  0.38080500  0.03648180  1
  C  C199  1  0.50577700  0.44023500  0.02034210  1
  C  C200  1  0.50799000  0.46444900  0.16510300  1
  O  O201  1  0.52449800  0.47884800  0.08478840  1
  C  C202  1  0.53735800  0.36142800  0.00559238  1
  H  H203  1  0.58767700  0.43357800  0.14520800  1
  H  H204  1  0.57161700  0.37360600  0.08274380  1
  O  O205  1  0.52677200  0.48031500  0.08445330  1
  H  H206  1  0.65171000  0.43604000  0.15567500  1
  C  C207  1  0.66333000  0.46665200  0.10686200  1
  C  C208  1  0.62202800  0.42146100  0.13874400  1
  C  C209  1  0.61752200  0.37366500  0.14234700  1
  O  O210  1  0.62963300  0.43127800  0.10748300  1
  H  H211  1  0.64021100  0.39808800  0.05247740  1
  C  C212  1  0.62744100  0.36594500  0.05286140  1
  C  C213  1  0.71289600  0.46020700  0.10650900  1
  Cl  Cl214  1  0.72786200  0.40782700  0.10682300  1
  H  H215  1  0.73916700  0.44267700  0.01060440  1
  O  O216  1  0.53506600  0.48818100  0.14826600  1
  Zn  Zn217  1  0.57936400  0.52617400  0.09791130  1
  Zn  Zn218  1  0.48734400  0.49416300  0.11867900  1
  C  C219  1  0.52115000  0.56872000  0.13852700  1
  O  O220  1  0.56555700  0.55789000  0.13273800  1
  H  H221  1  0.52208400  0.54199600  0.01807170  1
  O  O222  1  0.57650500  0.53890800  0.05744810  1
  N  N223  1  0.64590800  0.50563700  0.10726600  1
  N  N224  1  0.75222800  0.49096700  0.09779580  1
  H  H225  1  0.69407900  0.53477800  0.04579270  1
  C  C226  1  0.77025600  0.52569400  0.05751230  1
  C  C227  1  0.72917600  0.55413800  0.05321970  1
  Cl  Cl228  1  0.68208600  0.54853100  0.12615100  1
  O  O229  1  0.75396600  0.48639800  0.06913160  1
  H  H230  1  0.96694900  0.35047700  0.02972760  1
  H  H231  1  0.87186000  0.36307000  0.13094800  1
  C  C232  1  0.90896600  0.36050600  0.06036590  1
  H  H233  1  0.97572600  0.36720900  0.16213500  1
  H  H234  1  0.82458200  0.46916100  0.02609290  1
  O  O235  1  0.79810300  0.45450200  0.15106900  1
  C  C236  1  0.99667000  0.46665500  0.10686300  1
  C  C237  1  0.83909400  0.44022100  0.02033520  1
  H  H238  1  0.92070600  0.43328100  0.14502800  1
  H  H239  1  0.98471300  0.43619900  0.15568900  1
  C  C240  1  0.95525900  0.42141800  0.13868100  1
  C  C241  1  0.95117200  0.37363400  0.14231200  1
  O  O242  1  0.96297900  0.43127000  0.10743700  1
  H  H243  1  0.97349600  0.39803000  0.05248650  1
  H  H244  1  0.90489100  0.37357100  0.08275860  1
  C  C245  1  0.86754100  0.44049100  0.07698830  1
  C  C246  1  0.86326600  0.42118700  0.04387610  1
  C  C247  1  0.87870700  0.38077200  0.03648830  1
  C  C248  1  0.96070400  0.36589000  0.05285470  1
  C  C249  1  0.84134600  0.46440700  0.16507400  1
  O  O250  1  0.85782300  0.47884700  0.08477240  1
  C  C251  1  0.87062800  0.36139300  0.00559856  1
  O  O252  1  0.86010300  0.48031500  0.08443680  1
  H  H253  1  0.78227300  0.51846800  0.03382930  1
  H  H254  1  0.80292300  0.54259400  0.07063850  1
  Zn  Zn255  1  0.82067700  0.49414500  0.11866900  1
  O  O256  1  0.81600800  0.54349100  0.12857700  1
  C  C257  1  0.85447100  0.56869600  0.13853800  1
  H  H258  1  0.85543500  0.54199800  0.01807570  1
  O  O259  1  0.89888100  0.55787600  0.13274300  1
  O  O260  1  0.90985900  0.53891500  0.05745120  1
  O  O261  1  0.86842100  0.48814000  0.14823800  1
  N  N262  1  0.97923800  0.50563700  0.10727700  1
  Zn  Zn263  1  0.91269400  0.52617100  0.09791300  1
  H  H264  1  0.05775280  0.57202300  0.07544560  1
  H  H265  1  0.07943960  0.56996500  0.00579721  1
  H  H266  1  0.11116800  0.60553800  0.03594630  1
  H  H267  1  0.04902880  0.60551300  0.02738500  1
  C  C268  1  0.07574780  0.58625500  0.02904210  1
  C  C269  1  0.12552000  0.62772600  0.11646400  1
  O  O270  1  0.09422550  0.65087400  0.10637800  1
  C  C271  1  0.07204580  0.67064400  0.16559200  1
  O  O272  1  0.03527030  0.64756600  0.15646500  1
  H  H273  1  0.00536248  0.72403400  0.06040420  1
  H  H274  1  0.14204300  0.60996200  0.09999630  1
  C  C275  1  0.13991600  0.62786300  0.14855200  1
  C  C276  1  0.17923700  0.60474500  0.15699600  1
  C  C277  1  0.20022700  0.56600600  0.00282625  1
  H  H278  1  0.39110600  0.57202600  0.07542650  1
  H  H279  1  0.41275800  0.56993200  0.00577284  1
  H  H280  1  0.28017600  0.70304400  0.09174950  1
  H  H281  1  0.33875900  0.72400300  0.06037880  1
  C  C282  1  0.25028200  0.57917000  0.06448080  1
  C  C283  1  0.26753100  0.65352200  0.05418490  1
  C  C284  1  0.28643100  0.68020900  0.03124550  1
  C  C285  1  0.23060400  0.60289400  0.01280670  1
  C  C286  1  0.24893700  0.61078900  0.04444310  1
  C  C287  1  0.26242300  0.67195500  0.08460700  1
  C  C288  1  0.32005000  0.71948400  0.03924870  1
  O  O289  1  0.26088500  0.58504600  0.09377140  1
  O  O290  1  0.23401000  0.65587400  0.10287200  1
  O  O291  1  0.36860000  0.64755400  0.15645900  1
  O  O292  1  0.42755900  0.65087000  0.10637400  1
  H  H293  1  0.44451000  0.60551100  0.03590910  1
  H  H294  1  0.38237000  0.60549700  0.02735910  1
  C  C295  1  0.40908300  0.58623300  0.02901550  1
  H  H296  1  0.47537600  0.60995800  0.09999110  1
  C  C297  1  0.45885200  0.62772100  0.11645900  1
  C  C298  1  0.47324700  0.62785600  0.14854800  1
  C  C299  1  0.40537400  0.67063300  0.16558800  1
  O  O300  1  0.32678100  0.74670700  0.02069470  1
  C  C301  1  0.27185700  0.67027700  0.00010282  1
  C  C302  1  0.53355900  0.56600000  0.00282016  1
  H  H303  1  0.72442400  0.57202800  0.07539830  1
  H  H304  1  0.74608800  0.56988400  0.00574548  1
  H  H305  1  0.61352000  0.70303300  0.09174620  1
  C  C306  1  0.58361400  0.57916200  0.06447540  1
  C  C307  1  0.60086700  0.65351400  0.05418030  1
  C  C308  1  0.61976700  0.68020100  0.03124100  1
  C  C309  1  0.56393700  0.60288800  0.01280150  1
  C  C310  1  0.58227000  0.61078100  0.04443800  1
  C  C311  1  0.59576200  0.67194700  0.08460310  1
  O  O312  1  0.59421800  0.58503700  0.09376580  1
  O  O313  1  0.56734800  0.65586700  0.10286800  1
  C  C314  1  0.51256800  0.60473700  0.15699100  1
  H  H315  1  0.67210200  0.72399100  0.06037350  1
  C  C316  1  0.65338900  0.71947400  0.03924430  1
  H  H317  1  0.77784200  0.60548300  0.03587010  1
  H  H318  1  0.71570100  0.60546600  0.02731710  1
  C  C319  1  0.74241300  0.58620200  0.02898230  1
  O  O320  1  0.76087000  0.65083800  0.10638400  1
  C  C321  1  0.73868900  0.67060500  0.16559800  1
  O  O322  1  0.70191300  0.64752500  0.15647300  1
  O  O323  1  0.66011900  0.74669800  0.02069140  1
  C  C324  1  0.60519200  0.67027000  0.00009846  1
  C  C325  1  0.86690500  0.56600600  0.00282629  1
  C  C326  1  0.79216500  0.62769100  0.11647000  1
  H  H327  1  0.80868900  0.60992900  0.10000200  1
  C  C328  1  0.84588400  0.60470900  0.15700300  1
  C  C329  1  0.80656200  0.62782700  0.14855900  1
  C  C330  1  0.89727000  0.60289900  0.01281180  1
  C  C331  1  0.91559300  0.61079100  0.04445050  1
  C  C332  1  0.91694400  0.57916800  0.06448430  1
  H  H333  1  0.94679000  0.70304000  0.09177130  1
  C  C334  1  0.93416700  0.65352800  0.05419890  1
  C  C335  1  0.95305800  0.68022700  0.03126430  1
  C  C336  1  0.92904700  0.67195000  0.08462300  1
  C  C337  1  0.98665100  0.71951400  0.03927480  1
  O  O338  1  0.92752700  0.58503800  0.09377740  1
  O  O339  1  0.90063600  0.65585800  0.10288400  1
  O  O340  1  0.99335700  0.74674900  0.02072790  1
  C  C341  1  0.93849800  0.67029500  0.00011917  1
  O  O342  1  0.08731450  0.98641000  0.06914470  1
  N  N343  1  0.08557200  0.99098400  0.09780860  1
  Zn  Zn344  1  0.15401900  0.99416000  0.11868400  1
  C  C345  1  0.04624270  0.96022000  0.10652100  1
  Cl  Cl346  1  0.06121640  0.90784300  0.10683500  1
  H  H347  1  0.07248400  0.94253700  0.01064760  1
  H  H348  1  0.15789300  0.96915100  0.02611590  1
  C  C349  1  0.17244300  0.94023100  0.02034810  1
  O  O350  1  0.13143500  0.95452200  0.15108800  1
  C  C351  1  0.17466600  0.96444200  0.16510500  1
  O  O352  1  0.20174200  0.98817600  0.14827100  1
  O  O353  1  0.19344900  0.98031500  0.08445770  1
  O  O354  1  0.19117400  0.97884900  0.08479280  1
  H  H355  1  0.20494700  0.86364000  0.13078400  1
  C  C356  1  0.23166000  0.85532000  0.14872600  1
  C  C357  1  0.20088300  0.94049200  0.07700170  1
  C  C358  1  0.19664100  0.92120700  0.04388280  1
  C  C359  1  0.21211800  0.88080700  0.03648530  1
  C  C360  1  0.20404100  0.86143100  0.00559544  1
  H  H361  1  0.22985400  0.82053400  0.14870000  1
  O  O362  1  0.42064600  0.98640500  0.06914290  1
  N  N363  1  0.41890400  0.99098000  0.09780660  1
  H  H364  1  0.25432600  0.93355100  0.14519800  1
  H  H365  1  0.31835700  0.93605800  0.15568400  1
  H  H366  1  0.29711600  0.85682100  0.12145400  1
  C  C367  1  0.33000800  0.96665900  0.10687000  1
  C  C368  1  0.28869800  0.92146000  0.13874500  1
  C  C369  1  0.28423500  0.87366500  0.14234800  1
  O  O370  1  0.29631300  0.93128200  0.10748500  1
  H  H371  1  0.30039900  0.85052700  0.02974660  1
  H  H372  1  0.30689100  0.89810400  0.05248060  1
  H  H373  1  0.23830100  0.87360900  0.08274730  1
  H  H374  1  0.23039900  0.82847500  0.06132930  1
  H  H375  1  0.22631400  0.80115100  0.01472070  1
  C  C376  1  0.24238700  0.86054800  0.06035930  1
  C  C377  1  0.29412700  0.86595900  0.05286260  1
  C  C378  1  0.37957500  0.96021700  0.10652000  1
  Cl  Cl379  1  0.39454700  0.90783900  0.10683300  1
  H  H380  1  0.31649500  0.85156900  0.07032770  1
  H  H381  1  0.40582000  0.94254400  0.01064290  1
  H  H382  1  0.30852500  0.86710100  0.16226300  1
  O  O383  1  0.53507400  0.98817600  0.14826900  1
  Zn  Zn384  1  0.48735100  0.99415900  0.11868200  1
  O  O385  1  0.52450600  0.97884800  0.08479030  1
  H  H386  1  0.49122800  0.96915200  0.02611240  1
  C  C387  1  0.53421500  0.94049200  0.07699920  1
  C  C388  1  0.52997400  0.92120700  0.04388040  1
  C  C389  1  0.50577700  0.94023100  0.02034520  1
  O  O390  1  0.52678100  0.98031500  0.08445520  1
  C  C391  1  0.50799700  0.96444100  0.16510300  1
  O  O392  1  0.46476600  0.95452100  0.15108500  1
  H  H393  1  0.58765500  0.93354800  0.14519300  1
  H  H394  1  0.65168500  0.93606300  0.15568100  1
  H  H395  1  0.63045300  0.85682300  0.12145000  1
  H  H396  1  0.53828600  0.86363000  0.13078500  1
  C  C397  1  0.66334100  0.96666100  0.10686800  1
  C  C398  1  0.62203000  0.92146200  0.13874100  1
  C  C399  1  0.61757500  0.87366600  0.14234500  1
  C  C400  1  0.56500300  0.85531700  0.14872700  1
  O  O401  1  0.62964700  0.93128400  0.10748200  1
  H  H402  1  0.63373100  0.85052700  0.02974370  1
  H  H403  1  0.64022400  0.89810300  0.05247810  1
  H  H404  1  0.57163500  0.87360900  0.08274530  1
  H  H405  1  0.56373100  0.82847500  0.06132770  1
  H  H406  1  0.55964500  0.80115000  0.01471950  1
  C  C407  1  0.54545000  0.88080600  0.03648320  1
  C  C408  1  0.57572000  0.86054700  0.06035730  1
  C  C409  1  0.62746000  0.86595900  0.05285990  1
  H  H410  1  0.64187000  0.86710600  0.16225800  1
  H  H411  1  0.56320200  0.82053200  0.14870400  1
  C  C412  1  0.53737300  0.86143000  0.00559353  1
  H  H413  1  0.64982900  0.85156800  0.07032440  1
  O  O414  1  0.75398100  0.98641100  0.06914240  1
  N  N415  1  0.75223700  0.99098400  0.09780630  1
  Zn  Zn416  1  0.82068400  0.99415800  0.11868200  1
  C  C417  1  0.71290800  0.96022000  0.10651700  1
  Cl  Cl418  1  0.72788000  0.90784200  0.10682900  1
  H  H419  1  0.73912900  0.94249400  0.01065970  1
  H  H420  1  0.82453600  0.96913700  0.02612080  1
  O  O421  1  0.79810000  0.95451700  0.15108400  1
  C  C422  1  0.84133000  0.96444000  0.16510300  1
  O  O423  1  0.86840500  0.98817900  0.14827100  1
  O  O424  1  0.85783900  0.97884600  0.08479210  1
  H  H425  1  0.87161100  0.86364600  0.13077700  1
  C  C426  1  0.86754800  0.94048900  0.07700180  1
  C  C427  1  0.86330400  0.92120300  0.04388340  1
  C  C428  1  0.87878800  0.88080600  0.03648470  1
  C  C429  1  0.83909600  0.94022200  0.02035090  1
  O  O430  1  0.86011300  0.98031200  0.08445710  1
  C  C431  1  0.87070900  0.86142900  0.00559512  1
  H  H432  1  0.98317600  0.85158400  0.07032410  1
  C  C433  1  0.99667600  0.96666100  0.10687000  1
  C  C434  1  0.89832000  0.85532300  0.14872000  1
  H  H435  1  0.92099400  0.93355500  0.14519600  1
  H  H436  1  0.98502500  0.93605700  0.15568200  1
  C  C437  1  0.95536500  0.92146100  0.13874400  1
  H  H438  1  0.90497700  0.87361000  0.08274510  1
  H  H439  1  0.89708200  0.82847600  0.06132700  1
  H  H440  1  0.89299900  0.80115400  0.01471800  1
  C  C441  1  0.90906400  0.86055000  0.06035700  1
  C  C442  1  0.95089800  0.87366600  0.14234600  1
  H  H443  1  0.96378200  0.85682200  0.12145300  1
  O  O444  1  0.96298200  0.93128300  0.10748400  1
  H  H445  1  0.96707700  0.85053700  0.02974300  1
  H  H446  1  0.97356000  0.89811600  0.05247560  1
  C  C447  1  0.96080300  0.86597000  0.05285880  1
  H  H448  1  0.97518300  0.86710100  0.16226300  1
  H  H449  1  0.89651100  0.82053700  0.14869100  1
  H  H450  1  0.01299580  0.13980300  0.30117700  1
  O  O451  1  0.01091720  0.10483200  0.26277300  1
  H  H452  1  0.24907700  0.03016630  0.19172800  1
  H  H453  1  0.23031200  0.09691150  0.19129900  1
  H  H454  1  0.27509900  0.12478200  0.22919100  1
  C  C455  1  0.24644500  0.15229800  0.30166800  1
  C  C456  1  0.27436600  0.13828900  0.27684000  1
  C  C457  1  0.25409000  0.13527500  0.24664300  1
  C  C458  1  0.20725100  0.14765700  0.23999000  1
  C  C459  1  0.18505500  0.14069400  0.20934600  1
  C  C460  1  0.20326200  0.11336900  0.18623700  1
  C  C461  1  0.26993000  0.00340205  0.19282400  1
  C  C462  1  0.26005600  0.14331700  0.33226300  1
  C  C463  1  0.32562900  0.12758900  0.28181000  1
  O  O464  1  0.31277700  0.00720832  0.18517500  1
  O  O465  1  0.34426100  0.10483900  0.26277400  1
  H  H466  1  0.34634500  0.13981600  0.30117500  1
  C  C467  1  0.51838300  0.14069600  0.20934300  1
  C  C468  1  0.53659200  0.11337100  0.18623400  1
  C  C469  1  0.54058300  0.14766300  0.23998600  1
  H  H470  1  0.58240700  0.03016590  0.19172700  1
  O  O471  1  0.64610800  0.00720942  0.18517300  1
  H  H472  1  0.56364400  0.09691520  0.19129600  1
  H  H473  1  0.60843300  0.12479600  0.22918500  1
  C  C474  1  0.57978500  0.15231400  0.30166200  1
  C  C475  1  0.60770600  0.13830700  0.27683300  1
  C  C476  1  0.58742500  0.13528700  0.24663700  1
  C  C477  1  0.65897200  0.12761500  0.28180200  1
  O  O478  1  0.67760500  0.10486500  0.26276600  1
  H  H479  1  0.67968900  0.13984600  0.30116500  1
  C  C480  1  0.60326100  0.00340183  0.19282300  1
  C  C481  1  0.59340100  0.14333600  0.33225700  1
  O  O482  1  0.97944000  0.00720828  0.18517200  1
  H  H483  1  0.91574000  0.03016630  0.19172800  1
  H  H484  1  0.89697400  0.09691070  0.19129500  1
  H  H485  1  0.94175900  0.12477800  0.22918900  1
  C  C486  1  0.91309800  0.15228900  0.30166500  1
  C  C487  1  0.94102100  0.13828000  0.27683800  1
  C  C488  1  0.92074800  0.13527000  0.24664000  1
  C  C489  1  0.87391100  0.14765400  0.23998600  1
  C  C490  1  0.85171800  0.14069400  0.20934100  1
  C  C491  1  0.86992500  0.11336900  0.18623200  1
  C  C492  1  0.99228300  0.12757900  0.28181000  1
  C  C493  1  0.93659400  0.00340180  0.19282300  1
  C  C494  1  0.92670400  0.14330400  0.33226000  1
  C  C495  1  0.11900600  0.15293300  0.17200700  1
  C  C496  1  0.14137400  0.15911700  0.20240900  1
  H  H497  1  0.08865840  0.19650800  0.22231200  1
  H  H498  1  0.12206200  0.20582500  0.27354400  1
  H  H499  1  0.06992420  0.20408900  0.16974300  1
  C  C500  1  0.12028300  0.18286600  0.22625600  1
  C  C501  1  0.14073300  0.18787400  0.25638500  1
  O  O502  1  0.14770700  0.20980900  0.32959200  1
  H  H503  1  0.06590190  0.24476100  0.31637000  1
  C  C504  1  0.12144800  0.36810000  0.31989100  1
  C  C505  1  0.16609100  0.35141800  0.31186500  1
  C  C506  1  0.19187500  0.20627400  0.31901800  1
  C  C507  1  0.18354800  0.16969200  0.26409900  1
  C  C508  1  0.20391600  0.17324800  0.29511800  1
  O  O509  1  0.22982600  0.22910700  0.33237800  1
  H  H510  1  0.42198000  0.19650000  0.22231100  1
  H  H511  1  0.40324100  0.20407900  0.16974200  1
  H  H512  1  0.27478500  0.27810500  0.30346900  1
  C  C513  1  0.31029500  0.26671500  0.30553000  1
  H  H514  1  0.26045100  0.34299500  0.29618300  1
  C  C515  1  0.18016500  0.31508200  0.32938600  1
  C  C516  1  0.19038900  0.36539200  0.28494600  1
  C  C517  1  0.23971600  0.35929200  0.28014800  1
  O  O518  1  0.33220200  0.25899800  0.28039200  1
  H  H519  1  0.39923000  0.24477500  0.31637000  1
  C  C520  1  0.45477800  0.36811200  0.31989300  1
  C  C521  1  0.45232900  0.15292700  0.17200600  1
  C  C522  1  0.47469900  0.15911400  0.20240700  1
  H  H523  1  0.45538900  0.20582500  0.27354200  1
  C  C524  1  0.51688000  0.16969700  0.26409600  1
  C  C525  1  0.45360700  0.18286200  0.22625400  1
  C  C526  1  0.47406100  0.18787400  0.25638300  1
  O  O527  1  0.48103900  0.20981700  0.32958800  1
  C  C528  1  0.52520800  0.20628400  0.31901400  1
  C  C529  1  0.53725100  0.17325800  0.29511400  1
  O  O530  1  0.56315800  0.22911800  0.33237300  1
  C  C531  1  0.51349400  0.31509000  0.32938400  1
  C  C532  1  0.52371300  0.36540000  0.28494400  1
  C  C533  1  0.57303900  0.35929700  0.28014300  1
  C  C534  1  0.49941800  0.35142700  0.31186400  1
  H  H535  1  0.59377500  0.34299900  0.29617700  1
  H  H536  1  0.60811800  0.27811400  0.30346500  1
  C  C537  1  0.64362800  0.26672400  0.30552500  1
  O  O538  1  0.66553400  0.25900600  0.28038700  1
  H  H539  1  0.73256300  0.24478300  0.31636600  1
  H  H540  1  0.73659800  0.20409700  0.16973300  1
  C  C541  1  0.78567200  0.15293600  0.17200100  1
  C  C542  1  0.80803900  0.15911900  0.20240300  1
  H  H543  1  0.75532500  0.19651300  0.22230500  1
  H  H544  1  0.78872400  0.20582700  0.27353800  1
  C  C545  1  0.78694800  0.18286900  0.22624900  1
  C  C546  1  0.85853400  0.20627000  0.31901400  1
  C  C547  1  0.85020800  0.16968900  0.26409500  1
  C  C548  1  0.80739600  0.18787500  0.25637900  1
  C  C549  1  0.87057200  0.17324200  0.29511500  1
  O  O550  1  0.81436600  0.20981300  0.32958500  1
  O  O551  1  0.89648800  0.22909800  0.33237500  1
  C  C552  1  0.78814200  0.36810200  0.31986500  1
  C  C553  1  0.83277900  0.35140800  0.31184100  1
  C  C554  1  0.84684400  0.31507600  0.32937000  1
  H  H555  1  0.94145400  0.27807600  0.30345900  1
  C  C556  1  0.97696400  0.26668900  0.30552300  1
  O  O557  1  0.99887300  0.25896500  0.28038700  1
  H  H558  1  0.92713200  0.34296000  0.29615600  1
  C  C559  1  0.85707600  0.36536500  0.28491700  1
  C  C560  1  0.90639900  0.35925300  0.28011700  1
  C  C561  1  0.05737780  0.41742600  0.30904400  1
  O  O562  1  0.01138180  0.47642800  0.23690800  1
  O  O563  1  0.03205640  0.43260400  0.28983400  1
  C  C564  1  0.09923910  0.39408900  0.29945700  1
  H  H565  1  0.10325100  0.41915100  0.25666700  1
  H  H566  1  0.01304070  0.41770400  0.21903800  1
  H  H567  1  0.12745700  0.41599400  0.20754900  1
  C  C568  1  0.11932200  0.40100000  0.27044800  1
  C  C569  1  0.16554700  0.38857600  0.26314900  1
  C  C570  1  0.16684300  0.42279200  0.21208800  1
  H  H571  1  0.22091800  0.36754100  0.17192400  1
  H  H572  1  0.30488800  0.37737900  0.25668500  1
  H  H573  1  0.34636400  0.41779900  0.21913600  1
  C  C574  1  0.27008500  0.43636300  0.22082100  1
  C  C575  1  0.19428700  0.45020800  0.19313400  1
  C  C576  1  0.19071500  0.40478100  0.23713800  1
  C  C577  1  0.24260600  0.40586600  0.23749300  1
  C  C578  1  0.26579300  0.38008200  0.25738000  1
  C  C579  1  0.24477400  0.46266800  0.20222800  1
  C  C580  1  0.32442800  0.44317200  0.22530700  1
  O  O581  1  0.34467200  0.47654500  0.23694800  1
  H  H582  1  0.46077600  0.41600200  0.20754900  1
  H  H583  1  0.43658100  0.41917000  0.25667200  1
  C  C584  1  0.43257300  0.39410800  0.29946300  1
  C  C585  1  0.45265100  0.40101700  0.27045200  1
  C  C586  1  0.39072300  0.41745600  0.30905600  1
  O  O587  1  0.36541800  0.43266000  0.28985100  1
  H  H588  1  0.24908000  0.53017800  0.19172900  1
  O  O589  1  0.31278200  0.50722200  0.18517600  1
  C  C590  1  0.26993500  0.50341400  0.19282600  1
  H  H591  1  0.55418100  0.36755100  0.17189800  1
  C  C592  1  0.52760700  0.45021100  0.19313000  1
  C  C593  1  0.49887100  0.38858600  0.26314900  1
  C  C594  1  0.52403600  0.40478900  0.23713600  1
  C  C595  1  0.57592700  0.40587100  0.23748900  1
  C  C596  1  0.50016300  0.42279800  0.21208700  1
  C  C597  1  0.57809400  0.46267200  0.20222300  1
  C  C598  1  0.59911400  0.38008700  0.25737400  1
  H  H599  1  0.63820900  0.37738100  0.25667800  1
  H  H600  1  0.67968700  0.41780900  0.21914200  1
  C  C601  1  0.60340600  0.43636900  0.22081700  1
  C  C602  1  0.65774800  0.44318300  0.22530500  1
  C  C603  1  0.76594200  0.39409200  0.29942900  1
  C  C604  1  0.72409600  0.41744800  0.30901600  1
  O  O605  1  0.67798700  0.47656200  0.23693800  1
  O  O606  1  0.69879600  0.43264900  0.28980700  1
  H  H607  1  0.58240700  0.53018000  0.19172200  1
  C  C608  1  0.60325700  0.50341300  0.19281500  1
  O  O609  1  0.64609800  0.50721100  0.18515300  1
  H  H610  1  0.76995400  0.41913600  0.25663100  1
  H  H611  1  0.88806200  0.36738000  0.17205300  1
  C  C612  1  0.78602100  0.40098600  0.27041600  1
  H  H613  1  0.79414400  0.41594400  0.20751100  1
  H  H614  1  0.97157000  0.37731400  0.25664300  1
  C  C615  1  0.93677700  0.43628800  0.22076500  1
  C  C616  1  0.86097600  0.45014500  0.19308700  1
  C  C617  1  0.83223800  0.38854500  0.26311500  1
  C  C618  1  0.85740400  0.40473100  0.23709800  1
  C  C619  1  0.90929300  0.40580600  0.23744900  1
  C  C620  1  0.93247600  0.38002600  0.25734000  1
  C  C621  1  0.83353200  0.42273300  0.21204500  1
  C  C622  1  0.91146700  0.46259600  0.20217100  1
  C  C623  1  0.99112100  0.44307700  0.22524000  1
  O  O624  1  0.97948300  0.50723600  0.18521100  1
  H  H625  1  0.91571800  0.53011000  0.19168600  1
  C  C626  1  0.93660700  0.50336900  0.19280000  1
  H  H627  1  0.06586950  0.74475700  0.31637100  1
  H  H628  1  0.08864920  0.69651900  0.22230600  1
  H  H629  1  0.06992280  0.70410300  0.16973500  1
  C  C630  1  0.11900100  0.65294400  0.17200200  1
  C  C631  1  0.12027100  0.68287400  0.22625100  1
  H  H632  1  0.12204300  0.70582800  0.27354100  1
  C  C633  1  0.14071500  0.68787800  0.25638200  1
  O  O634  1  0.14767700  0.70980300  0.32959200  1
  C  C635  1  0.14136500  0.65912600  0.20240500  1
  H  H636  1  0.01297650  0.63979900  0.30118100  1
  O  O637  1  0.01088790  0.60481100  0.26278400  1
  C  C638  1  0.19184500  0.70626700  0.31901900  1
  C  C639  1  0.20723200  0.64765700  0.23999000  1
  C  C640  1  0.18352600  0.66969100  0.26409900  1
  C  C641  1  0.18504300  0.64070000  0.20934400  1
  C  C642  1  0.20388700  0.67324100  0.29511900  1
  C  C643  1  0.20325300  0.61337700  0.18623500  1
  H  H644  1  0.23030100  0.59691800  0.19129800  1
  H  H645  1  0.27508100  0.62478000  0.22919600  1
  C  C646  1  0.24641200  0.65228800  0.30167100  1
  C  C647  1  0.27433800  0.63828000  0.27684500  1
  C  C648  1  0.25406800  0.63527100  0.24664600  1
  C  C649  1  0.32559700  0.62757500  0.28181900  1
  O  O650  1  0.34422900  0.60482300  0.26278400  1
  H  H651  1  0.39920100  0.74476500  0.31636900  1
  H  H652  1  0.34631100  0.63979900  0.30118500  1
  C  C653  1  0.26001700  0.64330400  0.33226700  1
  O  O654  1  0.22979600  0.72909900  0.33237900  1
  H  H655  1  0.42197400  0.69650500  0.22230200  1
  H  H656  1  0.45537000  0.70581900  0.27353700  1
  H  H657  1  0.40324800  0.70409100  0.16973300  1
  C  C658  1  0.45232900  0.65293500  0.17199800  1
  C  C659  1  0.47469300  0.65911600  0.20240100  1
  C  C660  1  0.45359800  0.68286300  0.22624700  1
  C  C661  1  0.47404400  0.68787000  0.25637800  1
  O  O662  1  0.48100900  0.70980300  0.32958700  1
  O  O663  1  0.33217200  0.75898400  0.28039100  1
  H  H664  1  0.27475500  0.77809200  0.30346800  1
  C  C665  1  0.31026500  0.76670300  0.30552900  1
  H  H666  1  0.56363500  0.59691400  0.19129300  1
  H  H667  1  0.60841300  0.62477800  0.22919100  1
  C  C668  1  0.52517800  0.70626700  0.31901400  1
  C  C669  1  0.57974800  0.65229000  0.30166600  1
  C  C670  1  0.60767300  0.63828200  0.27683900  1
  C  C671  1  0.58740100  0.63527000  0.24664100  1
  C  C672  1  0.54056400  0.64765300  0.23998600  1
  C  C673  1  0.51685800  0.66968700  0.26409400  1
  C  C674  1  0.51837300  0.64069400  0.20934000  1
  C  C675  1  0.53658400  0.61337100  0.18623100  1
  C  C676  1  0.53722100  0.67324100  0.29511400  1
  C  C677  1  0.59335500  0.64330800  0.33226100  1
  O  O678  1  0.56312900  0.72909900  0.33237600  1
  C  C679  1  0.65893400  0.62757900  0.28181300  1
  O  O680  1  0.67756600  0.60482800  0.26277700  1
  H  H681  1  0.73253700  0.74476700  0.31637100  1
  H  H682  1  0.75529500  0.69648700  0.22231000  1
  H  H683  1  0.78869600  0.70580900  0.27354300  1
  H  H684  1  0.73656400  0.70406400  0.16973900  1
  H  H685  1  0.67964800  0.63980500  0.30117800  1
  C  C686  1  0.78564500  0.65290700  0.17200800  1
  C  C687  1  0.78691800  0.68284400  0.22625500  1
  H  H688  1  0.60809100  0.77809200  0.30346600  1
  C  C689  1  0.64360200  0.76670300  0.30552800  1
  O  O690  1  0.66551000  0.75898500  0.28039100  1
  C  C691  1  0.80736700  0.68785600  0.25638500  1
  O  O692  1  0.81434100  0.70980100  0.32959200  1
  C  C693  1  0.85169000  0.64066900  0.20934900  1
  C  C694  1  0.80801100  0.65909300  0.20241000  1
  C  C695  1  0.85850900  0.70626400  0.31901800  1
  C  C696  1  0.85018200  0.66967300  0.26410200  1
  C  C697  1  0.87054900  0.67323300  0.29512100  1
  C  C698  1  0.86989800  0.61334100  0.18624300  1
  H  H699  1  0.89694300  0.59687900  0.19130800  1
  C  C700  1  0.87388400  0.64763400  0.23999400  1
  H  H701  1  0.94173100  0.62475700  0.22919800  1
  C  C702  1  0.91307700  0.65228400  0.30167200  1
  C  C703  1  0.94099800  0.63827000  0.27684600  1
  C  C704  1  0.92072200  0.63525200  0.24664900  1
  C  C705  1  0.99225900  0.62756800  0.28181800  1
  C  C706  1  0.92668800  0.64330800  0.33226800  1
  O  O707  1  0.89646100  0.72909700  0.33237700  1
  O  O708  1  0.99884100  0.75897100  0.28039000  1
  H  H709  1  0.94142500  0.77808500  0.30346400  1
  C  C710  1  0.97693400  0.76669400  0.30552700  1
  H  H711  1  0.12744600  0.91599000  0.20754700  1
  H  H712  1  0.10324500  0.91916000  0.25666700  1
  C  C713  1  0.12142700  0.86809800  0.31988800  1
  C  C714  1  0.09922770  0.89409600  0.29945800  1
  C  C715  1  0.11931100  0.90100500  0.27044800  1
  C  C716  1  0.16553100  0.88857300  0.26314800  1
  C  C717  1  0.16606800  0.85141100  0.31186200  1
  C  C718  1  0.05737860  0.91744600  0.30904900  1
  O  O719  1  0.01132310  0.97653600  0.23694700  1
  O  O720  1  0.03207590  0.93265000  0.28984300  1
  C  C721  1  0.16683300  0.92278500  0.21208600  1
  H  H722  1  0.01301940  0.91778700  0.21914300  1
  C  C723  1  0.18013800  0.81507500  0.32938400  1
  C  C724  1  0.19036900  0.86538500  0.28494400  1
  H  H725  1  0.22091000  0.86753200  0.17191200  1
  C  C726  1  0.19428000  0.95019800  0.19313100  1
  C  C727  1  0.19070200  0.90477400  0.23713700  1
  C  C728  1  0.24259200  0.90585600  0.23749300  1
  C  C729  1  0.23969500  0.85928200  0.28014700  1
  C  C730  1  0.24476700  0.96265700  0.20222600  1
  H  H731  1  0.30487000  0.87736600  0.25668700  1
  H  H732  1  0.26042700  0.84298300  0.29618300  1
  H  H733  1  0.34635300  0.91778500  0.21914400  1
  C  C734  1  0.27007500  0.93635200  0.22082100  1
  C  C735  1  0.26577500  0.88007100  0.25738000  1
  C  C736  1  0.32441800  0.94316000  0.22531000  1
  C  C737  1  0.39071700  0.91745100  0.30905100  1
  O  O738  1  0.34466000  0.97653500  0.23694800  1
  O  O739  1  0.36541300  0.93265600  0.28984600  1
  C  C740  1  0.43256400  0.89410000  0.29945800  1
  C  C741  1  0.45476400  0.86810100  0.31988900  1
  H  H742  1  0.46077700  0.91599200  0.20754600  1
  H  H743  1  0.43658000  0.91916400  0.25666800  1
  C  C744  1  0.51347200  0.81507500  0.32938200  1
  C  C745  1  0.52761200  0.95019800  0.19312900  1
  C  C746  1  0.45264500  0.90100800  0.27044800  1
  C  C747  1  0.49886400  0.88857300  0.26314600  1
  C  C748  1  0.52370200  0.86538500  0.28494200  1
  C  C749  1  0.52403300  0.90477400  0.23713400  1
  C  C750  1  0.50016400  0.92278500  0.21208400  1
  C  C751  1  0.49940200  0.85141200  0.31186100  1
  H  H752  1  0.55425300  0.86753200  0.17191300  1
  H  H753  1  0.63820100  0.87736000  0.25668000  1
  H  H754  1  0.59375900  0.84297900  0.29617800  1
  C  C755  1  0.60340700  0.93634900  0.22081700  1
  C  C756  1  0.57592400  0.90585300  0.23748900  1
  C  C757  1  0.59910700  0.88006700  0.25737500  1
  C  C758  1  0.57302700  0.85927900  0.28014300  1
  C  C759  1  0.57809800  0.96265600  0.20222300  1
  C  C760  1  0.65775000  0.94315500  0.22530400  1
  O  O761  1  0.67799600  0.97652900  0.23694200  1
  H  H762  1  0.67968300  0.91777900  0.21913600  1
  H  H763  1  0.79411100  0.91598500  0.20754300  1
  H  H764  1  0.76991000  0.91915500  0.25666300  1
  C  C765  1  0.78809700  0.86809800  0.31988600  1
  C  C766  1  0.76589600  0.89409400  0.29945500  1
  C  C767  1  0.78597700  0.90100000  0.27044400  1
  C  C768  1  0.72404700  0.91744400  0.30904600  1
  O  O769  1  0.69874200  0.93264500  0.28984000  1
  C  C770  1  0.83219800  0.88856800  0.26314400  1
  C  C771  1  0.83349800  0.92278100  0.21208200  1
  C  C772  1  0.83273600  0.85140900  0.31185900  1
  C  C773  1  0.84680700  0.81507400  0.32938200  1
  C  C774  1  0.85703500  0.86538100  0.28494000  1
  C  C775  1  0.85736700  0.90477000  0.23713300  1
  C  C776  1  0.86094400  0.95019600  0.19312900  1
  C  C777  1  0.91143100  0.96265600  0.20222500  1
  H  H778  1  0.88756600  0.86753300  0.17190500  1
  C  C779  1  0.90925800  0.90585200  0.23748900  1
  C  C780  1  0.90636100  0.85927700  0.28014200  1
  H  H781  1  0.92709400  0.84297700  0.29617700  1
  C  C782  1  0.93244100  0.88006700  0.25737500  1
  H  H783  1  0.97153600  0.87736200  0.25668100  1
  C  C784  1  0.93674000  0.93635000  0.22081800  1
  C  C785  1  0.99108200  0.94316000  0.22530900  1
  H  H786  1  0.02566620  0.13670400  0.37699900  1
  H  H787  1  0.13387700  0.13866200  0.35828600  1
  C  C788  1  0.13112800  0.11510700  0.37521900  1
  O  O789  1  0.09770710  0.08659600  0.37090200  1
  O  O790  1  0.23277700  0.14766900  0.35365200  1
  H  H791  1  0.15843000  0.03373140  0.46790200  1
  H  H792  1  0.16465400  0.01579010  0.41973800  1
  C  C793  1  0.16865200  0.08308970  0.42000100  1
  C  C794  1  0.18751700  0.15871300  0.41286900  1
  C  C795  1  0.23895700  0.13457100  0.49115000  1
  C  C796  1  0.21479200  0.12946400  0.46098900  1
  C  C797  1  0.18800300  0.09039370  0.45112900  1
  C  C798  1  0.18048400  0.05957950  0.47279700  1
  C  C799  1  0.21451100  0.16293600  0.44116500  1
  C  C800  1  0.16273000  0.11864200  0.40218500  1
  C  C801  1  0.16219700  0.04099010  0.40645600  1
  O  O802  1  0.15780800  0.03306220  0.37834600  1
  H  H803  1  0.29183900  0.13043900  0.33716800  1
  H  H804  1  0.35901300  0.13670700  0.37700300  1
  O  O805  1  0.33081800  0.16124000  0.43114100  1
  O  O806  1  0.43105200  0.08660200  0.37089300  1
  H  H807  1  0.49175500  0.03374300  0.46789800  1
  H  H808  1  0.46722300  0.13866900  0.35827900  1
  H  H809  1  0.49799100  0.01579780  0.41973600  1
  C  C810  1  0.50198900  0.08309710  0.41999700  1
  C  C811  1  0.52085500  0.15872000  0.41286400  1
  C  C812  1  0.54812600  0.12947100  0.46098500  1
  C  C813  1  0.52133600  0.09040200  0.45112600  1
  C  C814  1  0.51381200  0.05958920  0.47279400  1
  C  C815  1  0.54784700  0.16294300  0.44116100  1
  C  C816  1  0.49607000  0.11864900  0.40217900  1
  C  C817  1  0.46447200  0.11511400  0.37521100  1
  C  C818  1  0.49553600  0.04099710  0.40645200  1
  O  O819  1  0.49114900  0.03306800  0.37834300  1
  O  O820  1  0.56612400  0.14768300  0.35364800  1
  C  C821  1  0.57229000  0.13457800  0.49114600  1
  H  H822  1  0.62518900  0.13046300  0.33716100  1
  H  H823  1  0.69234100  0.13671800  0.37700300  1
  O  O824  1  0.66414300  0.16125800  0.43113900  1
  O  O825  1  0.99747500  0.16123600  0.43113700  1
  O  O826  1  0.76436000  0.08660170  0.37090100  1
  H  H827  1  0.80052800  0.13866900  0.35828500  1
  C  C828  1  0.79778100  0.11511300  0.37521700  1
  O  O829  1  0.89942600  0.14766000  0.35364900  1
  H  H830  1  0.83130900  0.01579610  0.41973600  1
  H  H831  1  0.82508000  0.03374060  0.46790000  1
  H  H832  1  0.95848400  0.13042100  0.33716600  1
  C  C833  1  0.83530700  0.08309540  0.41999800  1
  C  C834  1  0.85417500  0.15871800  0.41286500  1
  C  C835  1  0.90562300  0.13457300  0.49114300  1
  C  C836  1  0.88145300  0.12946800  0.46098400  1
  C  C837  1  0.85465900  0.09039920  0.45112600  1
  C  C838  1  0.84713800  0.05958650  0.47279400  1
  C  C839  1  0.88117200  0.16294000  0.44116000  1
  C  C840  1  0.82938500  0.11864800  0.40218200  1
  C  C841  1  0.82885200  0.04099580  0.40645300  1
  O  O842  1  0.82446000  0.03306740  0.37834400  1
  O  O843  1  0.04000570  0.16454100  0.37681600  1
  O  O844  1  0.08844850  0.17208800  0.43047300  1
  S  S845  1  0.04257020  0.18307500  0.41431200  1
  O  O846  1  0.14329500  0.20690400  0.38441900  1
  C  C847  1  0.04740320  0.24992700  0.33634500  1
  C  C848  1  0.09853410  0.35817700  0.35000100  1
  O  O849  1  0.05384400  0.35304500  0.35222900  1
  C  C850  1  0.04270700  0.23983700  0.41741600  1
  C  C851  1  0.04910270  0.26019500  0.39060500  1
  O  O852  1  0.00740834  0.31762700  0.44852900  1
  H  H853  1  0.06929480  0.25447900  0.43617000  1
  N  N854  1  0.07158270  0.24792100  0.36427700  1
  C  C855  1  0.00188677  0.27308200  0.38921500  1
  H  H856  1  0.12150600  0.35319700  0.37006400  1
  C  C857  1  0.18476100  0.38389000  0.48142500  1
  O  O858  1  0.15305000  0.28589900  0.39917400  1
  Zn  Zn859  1  0.13797100  0.24782000  0.36383200  1
  O  O860  1  0.14395100  0.28737000  0.33542400  1
  C  C861  1  0.18765700  0.36787500  0.44964200  1
  O  O862  1  0.37334600  0.16454500  0.37681900  1
  O  O863  1  0.42179200  0.17209600  0.43047500  1
  H  H864  1  0.23139300  0.19413000  0.44854100  1
  H  H865  1  0.28505200  0.19022000  0.48393200  1
  C  C866  1  0.18535400  0.19742700  0.39553000  1
  O  O867  1  0.22632600  0.22055600  0.38965500  1
  H  H868  1  0.29891100  0.22522500  0.41734400  1
  S  S869  1  0.37591200  0.18308100  0.41431400  1
  O  O870  1  0.22416500  0.31221400  0.34176800  1
  H  H871  1  0.21416700  0.26895300  0.46382800  1
  C  C872  1  0.19554200  0.32524100  0.44353100  1
  C  C873  1  0.21439400  0.31973600  0.49826700  1
  C  C874  1  0.20751400  0.30151900  0.46815900  1
  C  C875  1  0.19476500  0.30443200  0.41187700  1
  O  O876  1  0.23650400  0.29809100  0.39936700  1
  Zn  Zn877  1  0.23940700  0.26509100  0.36367700  1
  N  N878  1  0.30736800  0.26779900  0.36207500  1
  C  C879  1  0.33191400  0.26124200  0.33480500  1
  O  O880  1  0.34074900  0.31762700  0.44853700  1
  H  H881  1  0.30055900  0.26947900  0.46592100  1
  C  C882  1  0.33522100  0.27308700  0.38922000  1
  C  C883  1  0.32850300  0.25149000  0.41912700  1
  C  C884  1  0.32161300  0.28125600  0.44679700  1
  C  C885  1  0.38073300  0.24993900  0.33634600  1
  H  H886  1  0.45483500  0.35320000  0.37006400  1
  C  C887  1  0.43186400  0.35818600  0.35000200  1
  O  O888  1  0.38717400  0.35305700  0.35223000  1
  H  H889  1  0.40263400  0.25448500  0.43617100  1
  C  C890  1  0.37604500  0.23984200  0.41741800  1
  C  C891  1  0.38243800  0.26020000  0.39060700  1
  N  N892  1  0.40491500  0.24792700  0.36427800  1
  O  O893  1  0.70667400  0.16455700  0.37681800  1
  H  H894  1  0.56472900  0.19413800  0.44853700  1
  C  C895  1  0.51869100  0.19743400  0.39552500  1
  O  O896  1  0.47663100  0.20691000  0.38441500  1
  O  O897  1  0.55966200  0.22056400  0.38965000  1
  H  H898  1  0.63224400  0.22524700  0.41734400  1
  H  H899  1  0.61838700  0.19022700  0.48393000  1
  S  S900  1  0.70923900  0.18309500  0.41431300  1
  O  O901  1  0.55749400  0.31222300  0.34176400  1
  H  H902  1  0.54750600  0.26895800  0.46382300  1
  C  C903  1  0.52887600  0.32524600  0.44352800  1
  C  C904  1  0.54772900  0.31973700  0.49826400  1
  C  C905  1  0.54085000  0.30152300  0.46815600  1
  C  C906  1  0.52098900  0.36787900  0.44964000  1
  C  C907  1  0.52809900  0.30443800  0.41187500  1
  C  C908  1  0.51809300  0.38389200  0.48142400  1
  O  O909  1  0.56983800  0.29810000  0.39936300  1
  O  O910  1  0.48638400  0.28590400  0.39917200  1
  Zn  Zn911  1  0.47130400  0.24782700  0.36383000  1
  O  O912  1  0.47728000  0.28737900  0.33542300  1
  Zn  Zn913  1  0.57274100  0.26510100  0.36367300  1
  C  C914  1  0.71406700  0.24994900  0.33634100  1
  C  C915  1  0.76522500  0.35819200  0.34997700  1
  O  O916  1  0.72053500  0.35306500  0.35220400  1
  N  N917  1  0.64070200  0.26781100  0.36207000  1
  H  H918  1  0.63390600  0.26950700  0.46591900  1
  H  H919  1  0.73597100  0.25450000  0.43616600  1
  C  C920  1  0.66855700  0.27310100  0.38921500  1
  C  C921  1  0.66183900  0.25150900  0.41912400  1
  C  C922  1  0.70937900  0.23985700  0.41741500  1
  C  C923  1  0.65495500  0.28128000  0.44679200  1
  C  C924  1  0.71577100  0.26021200  0.39060200  1
  C  C925  1  0.66524700  0.26125200  0.33480000  1
  N  N926  1  0.73824800  0.24793600  0.36427300  1
  O  O927  1  0.67409200  0.31765000  0.44852800  1
  O  O928  1  0.75511700  0.17210700  0.43047500  1
  O  O929  1  0.80995900  0.20691100  0.38441400  1
  H  H930  1  0.96557300  0.22522300  0.41734100  1
  H  H931  1  0.89805800  0.19413400  0.44853500  1
  H  H932  1  0.95172500  0.19021700  0.48392200  1
  C  C933  1  0.85201600  0.19743100  0.39552500  1
  O  O934  1  0.89299000  0.22055700  0.38965000  1
  H  H935  1  0.78819500  0.35321500  0.37004100  1
  O  O936  1  0.81971900  0.28590900  0.39916500  1
  Zn  Zn937  1  0.80463600  0.24782800  0.36382600  1
  O  O938  1  0.81062500  0.28737300  0.33541400  1
  O  O939  1  0.89084300  0.31220600  0.34175200  1
  H  H940  1  0.96722700  0.26947900  0.46591800  1
  C  C941  1  0.99516600  0.25148700  0.41912300  1
  C  C942  1  0.98827600  0.28125500  0.44679100  1
  C  C943  1  0.99858300  0.26122700  0.33480100  1
  C  C944  1  0.85432700  0.36788300  0.44963400  1
  C  C945  1  0.85143000  0.38389600  0.48141700  1
  H  H946  1  0.88083900  0.26896100  0.46381700  1
  C  C947  1  0.86221300  0.32524900  0.44352200  1
  C  C948  1  0.88106500  0.31974100  0.49825800  1
  C  C949  1  0.87418500  0.30152700  0.46815000  1
  C  C950  1  0.86143500  0.30444000  0.41186800  1
  O  O951  1  0.90317300  0.29809400  0.39935800  1
  Zn  Zn952  1  0.90607500  0.26508800  0.36367000  1
  N  N953  1  0.97403600  0.26779000  0.36206900  1
  H  H954  1  0.04939590  0.42255300  0.33336600  1
  H  H955  1  0.06743530  0.39142000  0.49235900  1
  H  H956  1  0.18700000  0.38341300  0.39944700  1
  H  H957  1  0.04382010  0.43076400  0.47377900  1
  H  H958  1  0.12687300  0.46609400  0.47010500  1
  H  H959  1  0.11610000  0.41721700  0.44862900  1
  C  C960  1  0.12189000  0.43348300  0.47206600  1
  C  C961  1  0.07306670  0.42359300  0.48821300  1
  C  C962  1  0.16238500  0.42069400  0.49020200  1
  O  O963  1  0.09767120  0.58659100  0.37091200  1
  H  H964  1  0.15840600  0.53373100  0.46790800  1
  H  H965  1  0.16462800  0.51578800  0.41974400  1
  C  C966  1  0.16216900  0.54098700  0.40646100  1
  C  C967  1  0.18046300  0.55957800  0.47280100  1
  C  C968  1  0.16862300  0.58308700  0.42000600  1
  C  C969  1  0.18797900  0.59039200  0.45113300  1
  O  O970  1  0.15777400  0.53305800  0.37835200  1
  H  H971  1  0.38273700  0.42257000  0.33337900  1
  H  H972  1  0.40077000  0.39140700  0.49235800  1
  C  C973  1  0.19153000  0.39618800  0.42334500  1
  O  O974  1  0.20243200  0.43408400  0.42801900  1
  H  H975  1  0.37714600  0.43075200  0.47378400  1
  H  H976  1  0.46019300  0.46609300  0.47011100  1
  H  H977  1  0.44942800  0.41721900  0.44863000  1
  C  C978  1  0.45521700  0.43348100  0.47206900  1
  C  C979  1  0.40639500  0.42358100  0.48821600  1
  H  H980  1  0.49174600  0.53372600  0.46790100  1
  C  C981  1  0.50196000  0.58308300  0.42000100  1
  C  C982  1  0.49550800  0.54098400  0.40645500  1
  O  O983  1  0.43101100  0.58658600  0.37090400  1
  O  O984  1  0.49111600  0.53305600  0.37834600  1
  H  H985  1  0.49796700  0.51578400  0.41973700  1
  H  H986  1  0.71610800  0.42257100  0.33333700  1
  H  H987  1  0.52032800  0.38341900  0.39944700  1
  H  H988  1  0.73410200  0.39142000  0.49234800  1
  C  C989  1  0.49571500  0.42069400  0.49020300  1
  C  C990  1  0.52485800  0.39619300  0.42334500  1
  O  O991  1  0.53575900  0.43409000  0.42801900  1
  H  H992  1  0.71048600  0.43076600  0.47377100  1
  C  C993  1  0.73973300  0.42359400  0.48820400  1
  C  C994  1  0.52131400  0.59038800  0.45112800  1
  C  C995  1  0.51380000  0.55957400  0.47279600  1
  O  O996  1  0.76434900  0.58659000  0.37090900  1
  H  H997  1  0.85367100  0.38342300  0.39944000  1
  H  H998  1  0.79353800  0.46609900  0.47010100  1
  H  H999  1  0.78276900  0.41722400  0.44862200  1
  C  C1000  1  0.82905100  0.42069800  0.49019600  1
  C  C1001  1  0.78855700  0.43348700  0.47206000  1
  C  C1002  1  0.85819900  0.39619600  0.42333800  1
  O  O1003  1  0.86910100  0.43409300  0.42801300  1
  H  H1004  1  0.82508100  0.53373300  0.46790700  1
  H  H1005  1  0.83130900  0.51579100  0.41974300  1
  C  C1006  1  0.83529800  0.58309000  0.42000700  1
  C  C1007  1  0.85465000  0.59039500  0.45113400  1
  C  C1008  1  0.84713500  0.55958100  0.47280200  1
  C  C1009  1  0.82884800  0.54099000  0.40646100  1
  O  O1010  1  0.82445800  0.53306200  0.37835200  1
  C  C1011  1  0.04737210  0.74992400  0.33634600  1
  Zn  Zn1012  1  0.13794200  0.74781600  0.36383200  1
  H  H1013  1  0.02563640  0.63670300  0.37701600  1
  C  C1014  1  0.04268290  0.73984400  0.41742000  1
  S  S1015  1  0.04254790  0.68308200  0.41432300  1
  N  N1016  1  0.07155310  0.74791800  0.36427900  1
  O  O1017  1  0.08842910  0.67209900  0.43048300  1
  O  O1018  1  0.03997790  0.66453900  0.37682900  1
  C  C1019  1  0.13109300  0.61510300  0.37522600  1
  O  O1020  1  0.14326600  0.70690000  0.38442000  1
  H  H1021  1  0.13383900  0.63865700  0.35829200  1
  H  H1022  1  0.06927190  0.75449000  0.43617200  1
  C  C1023  1  0.18532500  0.69742200  0.39553100  1
  C  C1024  1  0.18748700  0.65871000  0.41287200  1
  C  C1025  1  0.21477000  0.62946100  0.46099100  1
  C  C1026  1  0.21448600  0.66293300  0.44116700  1
  C  C1027  1  0.16269800  0.61863900  0.40219000  1
  O  O1028  1  0.22629700  0.72055000  0.38965600  1
  O  O1029  1  0.15302300  0.78589500  0.39917300  1
  C  C1030  1  0.04907550  0.76019600  0.39060700  1
  O  O1031  1  0.00738388  0.81763700  0.44852800  1
  O  O1032  1  0.14392300  0.78736500  0.33542300  1
  C  C1033  1  0.00185983  0.77308300  0.38921700  1
  C  C1034  1  0.19473800  0.80442700  0.41187600  1
  H  H1035  1  0.21413700  0.76894800  0.46382600  1
  C  C1036  1  0.20748400  0.80151400  0.46815800  1
  O  O1037  1  0.23647700  0.79808500  0.39936600  1
  C  C1038  1  0.21436400  0.81973000  0.49826600  1
  O  O1039  1  0.22413700  0.81220600  0.34176700  1
  O  O1040  1  0.23273500  0.64765700  0.35365400  1
  C  C1041  1  0.38070500  0.74993000  0.33634500  1
  H  H1042  1  0.29888200  0.72522000  0.41734400  1
  H  H1043  1  0.29179800  0.63042300  0.33717300  1
  H  H1044  1  0.23137000  0.69412700  0.44854100  1
  H  H1045  1  0.28503700  0.69021600  0.48392900  1
  C  C1046  1  0.23894200  0.63456800  0.49115000  1
  H  H1047  1  0.35897900  0.63669900  0.37700100  1
  C  C1048  1  0.37601600  0.73983300  0.41741700  1
  S  S1049  1  0.37587900  0.68307100  0.41431300  1
  N  N1050  1  0.40488600  0.74791700  0.36427700  1
  O  O1051  1  0.33078300  0.66123200  0.43113800  1
  O  O1052  1  0.37331500  0.66453700  0.37681700  1
  C  C1053  1  0.32847500  0.75148400  0.41912600  1
  H  H1054  1  0.40260600  0.75447500  0.43617000  1
  Zn  Zn1055  1  0.47127500  0.74781500  0.36382900  1
  O  O1056  1  0.42175700  0.67208400  0.43047500  1
  H  H1057  1  0.46717700  0.63865400  0.35828700  1
  C  C1058  1  0.51865800  0.69742000  0.39552700  1
  C  C1059  1  0.49603500  0.61863500  0.40218400  1
  C  C1060  1  0.46443100  0.61509900  0.37521900  1
  O  O1061  1  0.47659900  0.70689700  0.38441600  1
  Zn  Zn1062  1  0.23937900  0.76508400  0.36367700  1
  N  N1063  1  0.30734000  0.76779100  0.36207400  1
  H  H1064  1  0.30053100  0.76947700  0.46591900  1
  C  C1065  1  0.33519400  0.77307900  0.38921900  1
  C  C1066  1  0.32158800  0.78125100  0.44679600  1
  C  C1067  1  0.38240900  0.76019100  0.39060600  1
  C  C1068  1  0.33188500  0.76123200  0.33480400  1
  O  O1069  1  0.34072700  0.81762100  0.44853600  1
  C  C1070  1  0.52806900  0.80442500  0.41187500  1
  O  O1071  1  0.48635500  0.78589200  0.39917200  1
  O  O1072  1  0.47725600  0.78736600  0.33542100  1
  O  O1073  1  0.56607400  0.64765900  0.35364900  1
  H  H1074  1  0.56469900  0.69412600  0.44853800  1
  H  H1075  1  0.61836600  0.69021500  0.48392500  1
  C  C1076  1  0.52082100  0.65870700  0.41286800  1
  C  C1077  1  0.57227300  0.63456500  0.49114500  1
  C  C1078  1  0.54810300  0.62945900  0.46098600  1
  C  C1079  1  0.54781700  0.66293100  0.44116300  1
  O  O1080  1  0.55963000  0.72054900  0.38965300  1
  H  H1081  1  0.63221200  0.72521900  0.41734300  1
  H  H1082  1  0.62513800  0.63042900  0.33716800  1
  C  C1083  1  0.71404000  0.74993100  0.33634600  1
  Zn  Zn1084  1  0.80460800  0.74781700  0.36383200  1
  H  H1085  1  0.69231600  0.63670000  0.37700000  1
  C  C1086  1  0.70934600  0.73983400  0.41741800  1
  S  S1087  1  0.70921100  0.68307200  0.41431300  1
  N  N1088  1  0.73822000  0.74791900  0.36427800  1
  O  O1089  1  0.75508800  0.67208500  0.43047600  1
  O  O1090  1  0.66411400  0.66123100  0.43113700  1
  O  O1091  1  0.70665000  0.66453900  0.37681700  1
  H  H1092  1  0.80051100  0.63865900  0.35829300  1
  C  C1093  1  0.79776700  0.61510400  0.37522500  1
  O  O1094  1  0.80993400  0.70690200  0.38442200  1
  C  C1095  1  0.66180500  0.75148300  0.41912600  1
  H  H1096  1  0.73593400  0.75447600  0.43617100  1
  H  H1097  1  0.54745400  0.76894400  0.46382700  1
  C  C1098  1  0.54080700  0.80151100  0.46815800  1
  O  O1099  1  0.56980800  0.79808500  0.39936400  1
  Zn  Zn1100  1  0.57271200  0.76508300  0.36367500  1
  N  N1101  1  0.64067300  0.76779100  0.36207300  1
  H  H1102  1  0.63385100  0.76947600  0.46591600  1
  C  C1103  1  0.65491400  0.78125000  0.44679500  1
  C  C1104  1  0.66522000  0.76123200  0.33480400  1
  O  O1105  1  0.67405700  0.81761900  0.44853800  1
  O  O1106  1  0.81969000  0.78589800  0.39917200  1
  C  C1107  1  0.66852500  0.77307900  0.38921900  1
  C  C1108  1  0.71574100  0.76019300  0.39060700  1
  O  O1109  1  0.81059100  0.78736600  0.33542200  1
  C  C1110  1  0.54768500  0.81972700  0.49826600  1
  O  O1111  1  0.55747100  0.81220600  0.34176400  1
  O  O1112  1  0.99745600  0.66124600  0.43115300  1
  C  C1113  1  0.85199300  0.69742600  0.39553300  1
  C  C1114  1  0.85415600  0.65871400  0.41287400  1
  C  C1115  1  0.88115200  0.66293800  0.44116900  1
  C  C1116  1  0.82937100  0.61864100  0.40219000  1
  O  O1117  1  0.89296500  0.72055300  0.38965500  1
  O  O1118  1  0.89941000  0.64766200  0.35365700  1
  C  C1119  1  0.90560700  0.63457300  0.49115200  1
  C  C1120  1  0.88143800  0.62946600  0.46099300  1
  H  H1121  1  0.89803400  0.69413300  0.44854400  1
  H  H1122  1  0.96554900  0.72522800  0.41734700  1
  H  H1123  1  0.95847200  0.63043000  0.33717500  1
  H  H1124  1  0.95169600  0.69022600  0.48393400  1
  C  C1125  1  0.99514100  0.75149300  0.41912700  1
  H  H1126  1  0.88080600  0.76895600  0.46382300  1
  C  C1127  1  0.87415600  0.80152300  0.46815400  1
  C  C1128  1  0.86140500  0.80443300  0.41187200  1
  O  O1129  1  0.90314300  0.79808900  0.39936100  1
  H  H1130  1  0.96720400  0.76949100  0.46592100  1
  C  C1131  1  0.98825200  0.78126500  0.44679300  1
  C  C1132  1  0.99855200  0.76122600  0.33480300  1
  Zn  Zn1133  1  0.90604600  0.76508300  0.36367500  1
  N  N1134  1  0.97400700  0.76779000  0.36207200  1
  C  C1135  1  0.88104100  0.81974000  0.49826100  1
  O  O1136  1  0.89080700  0.81220400  0.34176200  1
  H  H1137  1  0.04939070  0.92256100  0.33337100  1
  H  H1138  1  0.12147300  0.85318700  0.37006000  1
  C  C1139  1  0.09850670  0.85817300  0.34999600  1
  O  O1140  1  0.05381570  0.85304400  0.35222000  1
  H  H1141  1  0.04380350  0.93077900  0.47378000  1
  H  H1142  1  0.12686200  0.96609700  0.47010300  1
  H  H1143  1  0.11607700  0.91721800  0.44862900  1
  H  H1144  1  0.18696400  0.88340700  0.39944600  1
  C  C1145  1  0.18763000  0.86787000  0.44964000  1
  C  C1146  1  0.18473700  0.88388600  0.48142300  1
  C  C1147  1  0.16236500  0.92069200  0.49020100  1
  C  C1148  1  0.12187300  0.93348600  0.47206500  1
  C  C1149  1  0.07304930  0.92360500  0.48821400  1
  C  C1150  1  0.19150100  0.89618200  0.42334300  1
  H  H1151  1  0.06741200  0.89143300  0.49236300  1
  O  O1152  1  0.20241000  0.93407800  0.42801600  1
  C  C1153  1  0.19551400  0.82523600  0.44352900  1
  H  H1154  1  0.38273300  0.92256700  0.33337400  1
  O  O1155  1  0.38715400  0.85304900  0.35222300  1
  H  H1156  1  0.37715200  0.93080600  0.47377000  1
  C  C1157  1  0.40639300  0.92362800  0.48820600  1
  H  H1158  1  0.40074700  0.89145800  0.49235700  1
  H  H1159  1  0.45481300  0.85319000  0.37006000  1
  C  C1160  1  0.43184500  0.85817600  0.34999700  1
  H  H1161  1  0.44942400  0.91722500  0.44862300  1
  H  H1162  1  0.46021900  0.96610600  0.47009300  1
  C  C1163  1  0.45522100  0.93349600  0.47205800  1
  H  H1164  1  0.52031000  0.88340700  0.39944300  1
  C  C1165  1  0.52884500  0.82523500  0.44352800  1
  C  C1166  1  0.52096800  0.86787100  0.44963800  1
  C  C1167  1  0.51807300  0.88388800  0.48142000  1
  C  C1168  1  0.49570700  0.92069800  0.49019700  1
  C  C1169  1  0.52484700  0.89618200  0.42334000  1
  O  O1170  1  0.53576100  0.93407700  0.42801300  1
  H  H1171  1  0.71606200  0.92256200  0.33336800  1
  H  H1172  1  0.78815100  0.85319400  0.37005900  1
  C  C1173  1  0.76518100  0.85817700  0.34999600  1
  O  O1174  1  0.72049100  0.85304800  0.35222300  1
  H  H1175  1  0.71047900  0.93077400  0.47377500  1
  H  H1176  1  0.79352900  0.96610800  0.47010500  1
  H  H1177  1  0.78276000  0.91723500  0.44862200  1
  C  C1178  1  0.82904400  0.92070400  0.49019600  1
  C  C1179  1  0.78854900  0.93349500  0.47206200  1
  C  C1180  1  0.73972600  0.92359900  0.48820700  1
  H  H1181  1  0.73409600  0.89142400  0.49234700  1
  H  H1182  1  0.85364600  0.88341500  0.39944000  1
  C  C1183  1  0.86218500  0.82524400  0.44352500  1
  C  C1184  1  0.85430600  0.86788000  0.44963500  1
  C  C1185  1  0.85141500  0.88389700  0.48141800  1
  C  C1186  1  0.85818000  0.89619100  0.42333700  1
  O  O1187  1  0.86908900  0.93408700  0.42801000  1
  H  H1188  1  0.05777610  0.07203730  0.57541900  1
  H  H1189  1  0.02742700  0.03480520  0.54580400  1
  C  C1190  1  0.06252560  0.05415900  0.55323600  1
  H  H1191  1  0.04905930  0.10550100  0.52734800  1
  Cl  Cl1192  1  0.01541510  0.04853700  0.62616200  1
  O  O1193  1  0.03525980  0.14754200  0.65646800  1
  C  C1194  1  0.07203310  0.17062200  0.66559700  1
  C  C1195  1  0.07576980  0.08623550  0.52900900  1
  O  O1196  1  0.09422180  0.15086100  0.60638300  1
  H  H1197  1  0.14203900  0.10995000  0.60000100  1
  C  C1198  1  0.12551400  0.12771200  0.61646900  1
  H  H1199  1  0.11560600  0.01848200  0.53383300  1
  H  H1200  1  0.13627500  0.04260080  0.57064200  1
  H  H1201  1  0.11119800  0.10551200  0.53590400  1
  H  H1202  1  0.07944860  0.06992990  0.50576800  1
  C  C1203  1  0.10360100  0.02570730  0.55752000  1
  C  C1204  1  0.13990900  0.12784600  0.64855800  1
  O  O1205  1  0.14934900  0.04350830  0.62857900  1
  C  C1206  1  0.27185200  0.17027600  0.50010800  1
  Zn  Zn1207  1  0.24603300  0.02617570  0.59791700  1
  C  C1208  1  0.18781500  0.06871320  0.63853700  1
  O  O1209  1  0.23222400  0.05788780  0.63274500  1
  H  H1210  1  0.18877600  0.04198540  0.51807100  1
  C  C1211  1  0.25028100  0.07916450  0.56448200  1
  C  C1212  1  0.26751900  0.15351900  0.55418900  1
  C  C1213  1  0.23061000  0.10288700  0.51280700  1
  C  C1214  1  0.20024400  0.06599420  0.50282200  1
  C  C1215  1  0.24893500  0.11078300  0.54444500  1
  C  C1216  1  0.26240400  0.17194900  0.58461100  1
  O  O1217  1  0.24318700  0.03891060  0.55745400  1
  O  O1218  1  0.26087200  0.08504030  0.59377400  1
  O  O1219  1  0.23399000  0.15586500  0.60287400  1
  C  C1220  1  0.17923100  0.10472900  0.65700200  1
  N  N1221  1  0.31257800  0.00564270  0.60727600  1
  Cl  Cl1222  1  0.34874600  0.04853500  0.62616800  1
  H  H1223  1  0.36075300  0.03479660  0.54580500  1
  H  H1224  1  0.39109800  0.07203010  0.57542100  1
  H  H1225  1  0.44451500  0.10551100  0.53590600  1
  H  H1226  1  0.38237600  0.10549300  0.52734900  1
  H  H1227  1  0.41277100  0.06992630  0.50577000  1
  C  C1228  1  0.39585000  0.05415300  0.55323800  1
  C  C1229  1  0.40909000  0.08623080  0.52901100  1
  O  O1230  1  0.42756100  0.15086700  0.60637400  1
  C  C1231  1  0.40537800  0.17063700  0.66558800  1
  O  O1232  1  0.36860200  0.14756100  0.65646000  1
  C  C1233  1  0.43692800  0.02570470  0.55752100  1
  C  C1234  1  0.45885200  0.12771600  0.61646100  1
  C  C1235  1  0.60518700  0.17028200  0.50010400  1
  H  H1236  1  0.44893200  0.01847820  0.53383400  1
  H  H1237  1  0.46960200  0.04260100  0.57064100  1
  H  H1238  1  0.47537400  0.10995100  0.59999400  1
  C  C1239  1  0.52115000  0.06871740  0.63853200  1
  O  O1240  1  0.48268300  0.04351070  0.62857700  1
  H  H1241  1  0.52209900  0.04199670  0.51807000  1
  C  C1242  1  0.53357100  0.06600350  0.50281900  1
  O  O1243  1  0.56732900  0.15586800  0.60287100  1
  C  C1244  1  0.51256600  0.10473400  0.65699500  1
  C  C1245  1  0.47324700  0.12785300  0.64855000  1
  O  O1246  1  0.56555800  0.05789200  0.63274000  1
  C  C1247  1  0.56394200  0.10289400  0.51280300  1
  C  C1248  1  0.58226900  0.11078800  0.54444100  1
  O  O1249  1  0.57651500  0.03891440  0.55744900  1
  C  C1250  1  0.58361500  0.07916830  0.56447800  1
  Zn  Zn1251  1  0.57936700  0.02617880  0.59791300  1
  C  C1252  1  0.60085500  0.15352300  0.55418500  1
  N  N1253  1  0.64591100  0.00564554  0.60727200  1
  C  C1254  1  0.59574200  0.17195300  0.58460800  1
  O  O1255  1  0.59421100  0.08504290  0.59376900  1
  H  H1256  1  0.69408000  0.03479450  0.54580600  1
  H  H1257  1  0.72442400  0.07202670  0.57542300  1
  H  H1258  1  0.71569100  0.10549400  0.52735400  1
  C  C1259  1  0.72917500  0.05415310  0.55323800  1
  Cl  Cl1260  1  0.68207600  0.04853530  0.62617000  1
  C  C1261  1  0.73871000  0.17063700  0.66558700  1
  O  O1262  1  0.70193400  0.14755900  0.65646000  1
  C  C1263  1  0.74240900  0.08623540  0.52901400  1
  C  C1264  1  0.93852600  0.17027500  0.50009800  1
  C  C1265  1  0.77025800  0.02570780  0.55751800  1
  C  C1266  1  0.79218400  0.12772100  0.61645800  1
  O  O1267  1  0.76088900  0.15086900  0.60637200  1
  H  H1268  1  0.78225800  0.01848220  0.53383000  1
  H  H1269  1  0.77783100  0.10552000  0.53591000  1
  H  H1270  1  0.74609400  0.06993490  0.50577200  1
  C  C1271  1  0.80658100  0.12785800  0.64854600  1
  H  H1272  1  0.80870700  0.10995800  0.59999000  1
  H  H1273  1  0.80293400  0.04260580  0.57063600  1
  N  N1274  1  0.97924500  0.00564514  0.60727000  1
  Zn  Zn1275  1  0.91270100  0.02617920  0.59791100  1
  C  C1276  1  0.85448500  0.06872310  0.63852600  1
  O  O1277  1  0.89889200  0.05789480  0.63273600  1
  O  O1278  1  0.81601700  0.04351630  0.62857300  1
  H  H1279  1  0.85543000  0.04199440  0.51806900  1
  C  C1280  1  0.91695100  0.07916620  0.56447500  1
  C  C1281  1  0.93419800  0.15351900  0.55418000  1
  C  C1282  1  0.89727500  0.10289000  0.51280100  1
  C  C1283  1  0.86690100  0.06600060  0.50281900  1
  C  C1284  1  0.91560600  0.11078500  0.54443700  1
  C  C1285  1  0.92908800  0.17195200  0.58460200  1
  O  O1286  1  0.90984700  0.03891220  0.55744800  1
  O  O1287  1  0.92755000  0.08504240  0.59376600  1
  O  O1288  1  0.90067400  0.15587000  0.60286600  1
  C  C1289  1  0.84590300  0.10474000  0.65699000  1
  H  H1290  1  0.00542625  0.22399900  0.56037600  1
  C  C1291  1  0.28641700  0.18021000  0.53125100  1
  H  H1292  1  0.28015200  0.20303800  0.59175600  1
  H  H1293  1  0.33873500  0.22400900  0.56038800  1
  C  C1294  1  0.32002600  0.21948900  0.53925800  1
  C  C1295  1  0.20403600  0.36142500  0.50559900  1
  H  H1296  1  0.29712300  0.35682200  0.62145600  1
  H  H1297  1  0.20495600  0.36361500  0.63079500  1
  C  C1298  1  0.28424500  0.37366500  0.64235100  1
  C  C1299  1  0.23167800  0.35531000  0.64873700  1
  H  H1300  1  0.30039000  0.35051600  0.52975100  1
  H  H1301  1  0.23829400  0.37360400  0.58275200  1
  H  H1302  1  0.23038700  0.32847000  0.56133500  1
  H  H1303  1  0.22630400  0.30114400  0.51472600  1
  C  C1304  1  0.21211200  0.38080200  0.53648900  1
  C  C1305  1  0.24237900  0.36054200  0.56036400  1
  C  C1306  1  0.29411900  0.36594900  0.55286700  1
  O  O1307  1  0.32674800  0.24671600  0.52070700  1
  H  H1308  1  0.31648600  0.35155700  0.57033200  1
  H  H1309  1  0.30854600  0.36710900  0.66226200  1
  H  H1310  1  0.22988400  0.32052500  0.64871800  1
  C  C1311  1  0.61975300  0.18021400  0.53124800  1
  H  H1312  1  0.61349100  0.20304200  0.59175300  1
  H  H1313  1  0.67207300  0.22401300  0.56038500  1
  C  C1314  1  0.65336400  0.21949300  0.53925400  1
  C  C1315  1  0.53736900  0.36142600  0.50559700  1
  H  H1316  1  0.53829000  0.36361000  0.63079300  1
  C  C1317  1  0.56501200  0.35530800  0.64873600  1
  H  H1318  1  0.57162700  0.37360300  0.58275000  1
  H  H1319  1  0.56372000  0.32846900  0.56133200  1
  H  H1320  1  0.55964000  0.30114600  0.51472300  1
  C  C1321  1  0.54544500  0.38080200  0.53648700  1
  C  C1322  1  0.57571200  0.36054100  0.56036200  1
  H  H1323  1  0.56322100  0.32052300  0.64871800  1
  C  C1324  1  0.61757900  0.37366500  0.64234900  1
  H  H1325  1  0.63045600  0.35682200  0.62145400  1
  H  H1326  1  0.63372300  0.35051600  0.52974900  1
  C  C1327  1  0.62745200  0.36594800  0.55286600  1
  O  O1328  1  0.66008700  0.24672000  0.52070300  1
  H  H1329  1  0.64981900  0.35155500  0.57033000  1
  H  H1330  1  0.64188100  0.36711000  0.66226000  1
  C  C1331  1  0.95309900  0.18020600  0.53124100  1
  H  H1332  1  0.94684000  0.20304000  0.59174500  1
  C  C1333  1  0.98671900  0.21948000  0.53924500  1
  H  H1334  1  0.98315800  0.35156600  0.57032200  1
  C  C1335  1  0.87070500  0.36143000  0.50559100  1
  H  H1336  1  0.96379600  0.35681900  0.62144500  1
  H  H1337  1  0.87163400  0.36358300  0.63079300  1
  C  C1338  1  0.95092300  0.37365900  0.64234300  1
  C  C1339  1  0.89836300  0.35529300  0.64873700  1
  H  H1340  1  0.96706000  0.35052800  0.52974200  1
  H  H1341  1  0.90496200  0.37360600  0.58274400  1
  H  H1342  1  0.89706100  0.32847300  0.56132500  1
  H  H1343  1  0.89297600  0.30114900  0.51471600  1
  C  C1344  1  0.87878000  0.38080500  0.53648100  1
  C  C1345  1  0.90904800  0.36054600  0.56035600  1
  C  C1346  1  0.96078900  0.36595800  0.55285900  1
  O  O1347  1  0.99345200  0.24670300  0.52069100  1
  H  H1348  1  0.97523500  0.36710700  0.66225000  1
  H  H1349  1  0.89658300  0.32050900  0.64872500  1
  C  C1350  1  0.04623840  0.46021600  0.60652100  1
  N  N1351  1  0.08556760  0.49097900  0.59780900  1
  Cl  Cl1352  1  0.06121170  0.40783900  0.60683400  1
  H  H1353  1  0.07248850  0.44255200  0.51064300  1
  O  O1354  1  0.13143000  0.45451900  0.65108800  1
  O  O1355  1  0.08731110  0.48640400  0.56914500  1
  H  H1356  1  0.15789600  0.46915000  0.52611500  1
  C  C1357  1  0.17244300  0.44022800  0.52034900  1
  O  O1358  1  0.19344400  0.48031300  0.58445800  1
  C  C1359  1  0.17466100  0.46444000  0.66510500  1
  O  O1360  1  0.20173800  0.48817400  0.64827100  1
  Zn  Zn1361  1  0.15401500  0.49415800  0.61868400  1
  O  O1362  1  0.19117000  0.47884600  0.58479300  1
  H  H1363  1  0.11559400  0.51847200  0.53383300  1
  H  H1364  1  0.13627200  0.54259500  0.57064000  1
  H  H1365  1  0.02741930  0.53479200  0.54580900  1
  H  H1366  1  0.05776570  0.57202100  0.57542700  1
  H  H1367  1  0.11117900  0.60551100  0.53591500  1
  H  H1368  1  0.04903930  0.60549100  0.52735800  1
  H  H1369  1  0.07943850  0.56992900  0.50577600  1
  C  C1370  1  0.10359600  0.52569900  0.55752100  1
  C  C1371  1  0.06251610  0.55414700  0.55324200  1
  C  C1372  1  0.07575470  0.58623000  0.52901800  1
  H  H1373  1  0.14203600  0.60994800  0.59999900  1
  Cl  Cl1374  1  0.01541170  0.54853100  0.62617300  1
  O  O1375  1  0.14935000  0.54351000  0.62857900  1
  H  H1376  1  0.18876300  0.54198400  0.51807500  1
  C  C1377  1  0.18781800  0.56871500  0.63853500  1
  C  C1378  1  0.20022900  0.56599200  0.50282500  1
  C  C1379  1  0.17923600  0.60473200  0.65699800  1
  C  C1380  1  0.20087900  0.44048900  0.57700300  1
  C  C1381  1  0.19663800  0.42120300  0.54388500  1
  H  H1382  1  0.25431200  0.43354100  0.64519300  1
  H  H1383  1  0.31834200  0.43606700  0.65568600  1
  C  C1384  1  0.33000500  0.46665800  0.60687100  1
  C  C1385  1  0.28869100  0.42146000  0.63874500  1
  O  O1386  1  0.29631100  0.43128100  0.60748500  1
  H  H1387  1  0.30688700  0.39809300  0.55248500  1
  C  C1388  1  0.37957200  0.46021700  0.60652100  1
  N  N1389  1  0.41890100  0.49098000  0.59780800  1
  Cl  Cl1390  1  0.39454400  0.40783900  0.60683400  1
  H  H1391  1  0.40581600  0.44253500  0.51064800  1
  H  H1392  1  0.49122500  0.46914800  0.52611700  1
  O  O1393  1  0.46476600  0.45451800  0.65108600  1
  Zn  Zn1394  1  0.48734900  0.49415800  0.61868300  1
  O  O1395  1  0.42064300  0.48640500  0.56914400  1
  N  N1396  1  0.31257900  0.50564100  0.60727600  1
  Zn  Zn1397  1  0.24603400  0.52617400  0.59791800  1
  O  O1398  1  0.23222600  0.55788700  0.63274500  1
  C  C1399  1  0.25028000  0.57916100  0.56448100  1
  C  C1400  1  0.23059900  0.60288400  0.51280700  1
  O  O1401  1  0.24317900  0.53890700  0.55745400  1
  O  O1402  1  0.26087900  0.58503700  0.59377200  1
  Cl  Cl1403  1  0.34874700  0.54853300  0.62617000  1
  H  H1404  1  0.36075700  0.53479700  0.54580700  1
  H  H1405  1  0.38238600  0.60549500  0.52735600  1
  H  H1406  1  0.39110600  0.57202500  0.57542500  1
  H  H1407  1  0.47536800  0.60994900  0.59999600  1
  H  H1408  1  0.44893000  0.51847100  0.53383300  1
  H  H1409  1  0.46960900  0.54259300  0.57063900  1
  H  H1410  1  0.44452500  0.60550900  0.53591200  1
  H  H1411  1  0.41277900  0.56992900  0.50577400  1
  C  C1412  1  0.43693200  0.52569900  0.55752100  1
  C  C1413  1  0.39585500  0.55415100  0.55324000  1
  C  C1414  1  0.40909800  0.58623100  0.52901600  1
  O  O1415  1  0.48268400  0.54351000  0.62857700  1
  C  C1416  1  0.51256900  0.60473300  0.65699500  1
  C  C1417  1  0.24893100  0.61078000  0.54444400  1
  H  H1418  1  0.58764000  0.43353800  0.64518900  1
  C  C1419  1  0.53421200  0.44048800  0.57700300  1
  C  C1420  1  0.52997100  0.42120300  0.54388400  1
  C  C1421  1  0.50577400  0.44022700  0.52034900  1
  O  O1422  1  0.52677800  0.48031200  0.58445800  1
  C  C1423  1  0.50799600  0.46444100  0.66510400  1
  O  O1424  1  0.53507100  0.48817800  0.64827100  1
  O  O1425  1  0.52450400  0.47884600  0.58479300  1
  H  H1426  1  0.65166900  0.43606800  0.65568400  1
  C  C1427  1  0.62202100  0.42145900  0.63874200  1
  C  C1428  1  0.66333700  0.46665700  0.60686900  1
  O  O1429  1  0.62964200  0.43128000  0.60748300  1
  H  H1430  1  0.64022000  0.39809200  0.55248400  1
  C  C1431  1  0.71290400  0.46021500  0.60651900  1
  N  N1432  1  0.75223400  0.49097800  0.59780700  1
  Cl  Cl1433  1  0.72787600  0.40783800  0.60683200  1
  H  H1434  1  0.73915200  0.44254900  0.51063600  1
  O  O1435  1  0.75397600  0.48640500  0.56914300  1
  Zn  Zn1436  1  0.57936800  0.52617300  0.59791500  1
  C  C1437  1  0.52115100  0.56871600  0.63853100  1
  O  O1438  1  0.56555900  0.55788800  0.63274100  1
  H  H1439  1  0.52209900  0.54197900  0.51806900  1
  C  C1440  1  0.58361200  0.57915900  0.56447800  1
  C  C1441  1  0.56393200  0.60288200  0.51280300  1
  C  C1442  1  0.53356500  0.56598800  0.50282000  1
  O  O1443  1  0.57651100  0.53890500  0.55745100  1
  O  O1444  1  0.59421300  0.58503600  0.59376800  1
  N  N1445  1  0.64591200  0.50564100  0.60727400  1
  H  H1446  1  0.78226200  0.51847300  0.53383200  1
  H  H1447  1  0.69408800  0.53479600  0.54580600  1
  H  H1448  1  0.72443500  0.57202300  0.57542500  1
  H  H1449  1  0.77785300  0.60551300  0.53591600  1
  H  H1450  1  0.71571400  0.60549600  0.52735700  1
  H  H1451  1  0.74611200  0.56993300  0.50577500  1
  C  C1452  1  0.77026300  0.52570000  0.55752000  1
  C  C1453  1  0.72918600  0.55415000  0.55324000  1
  C  C1454  1  0.74242800  0.58623300  0.52901700  1
  Cl  Cl1455  1  0.68207900  0.54853100  0.62617000  1
  H  H1456  1  0.80870300  0.60994700  0.60000100  1
  C  C1457  1  0.58226300  0.61077800  0.54444000  1
  H  H1458  1  0.80293900  0.54259400  0.57063900  1
  H  H1459  1  0.82455900  0.46915100  0.52611100  1
  C  C1460  1  0.83910800  0.44023000  0.52034300  1
  Zn  Zn1461  1  0.82068100  0.49415600  0.61868200  1
  O  O1462  1  0.79809500  0.45451800  0.65108600  1
  C  C1463  1  0.84132800  0.46443500  0.66510200  1
  O  O1464  1  0.85783500  0.47884600  0.58478900  1
  O  O1465  1  0.86011000  0.48031300  0.58445400  1
  O  O1466  1  0.86840600  0.48816800  0.64826700  1
  C  C1467  1  0.99667100  0.46665700  0.60687000  1
  H  H1468  1  0.92096500  0.43352300  0.64518300  1
  H  H1469  1  0.98499300  0.43606700  0.65568300  1
  C  C1470  1  0.95535300  0.42145300  0.63873900  1
  O  O1471  1  0.96297700  0.43127900  0.60748000  1
  H  H1472  1  0.97355300  0.39810300  0.55247800  1
  C  C1473  1  0.86754400  0.44049000  0.57699800  1
  C  C1474  1  0.86330300  0.42120600  0.54387900  1
  C  C1475  1  0.85448400  0.56871100  0.63853600  1
  O  O1476  1  0.81601700  0.54350700  0.62857800  1
  H  H1477  1  0.85543300  0.54198700  0.51807600  1
  C  C1478  1  0.86689900  0.56599600  0.50282600  1
  C  C1479  1  0.84590200  0.60472700  0.65700000  1
  O  O1480  1  0.89889200  0.55788400  0.63274500  1
  C  C1481  1  0.89726600  0.60288800  0.51280900  1
  O  O1482  1  0.90984900  0.53890900  0.55745400  1
  C  C1483  1  0.91694700  0.57916300  0.56448300  1
  O  O1484  1  0.92754400  0.58503700  0.59377400  1
  N  N1485  1  0.97924500  0.50564000  0.60727600  1
  Zn  Zn1486  1  0.91270100  0.52617300  0.59791700  1
  C  C1487  1  0.91559700  0.61078300  0.54444600  1
  C  C1488  1  0.12551400  0.62771200  0.61646700  1
  O  O1489  1  0.09422000  0.65086000  0.60638200  1
  C  C1490  1  0.13991400  0.62785000  0.64855500  1
  C  C1491  1  0.07204390  0.67063000  0.66559600  1
  O  O1492  1  0.03526800  0.64755100  0.65647200  1
  H  H1493  1  0.00539874  0.72401000  0.56038400  1
  H  H1494  1  0.22627300  0.80113800  0.51472500  1
  H  H1495  1  0.23002800  0.82047700  0.64877100  1
  H  H1496  1  0.23036900  0.82846700  0.56133200  1
  C  C1497  1  0.27184100  0.67027200  0.50010500  1
  H  H1498  1  0.28016100  0.70303500  0.59175200  1
  H  H1499  1  0.33874100  0.72400100  0.56038000  1
  C  C1500  1  0.26751900  0.65351500  0.55418600  1
  C  C1501  1  0.28641500  0.68020400  0.53124700  1
  C  C1502  1  0.26241000  0.67194600  0.58460900  1
  C  C1503  1  0.32002900  0.71948100  0.53925100  1
  O  O1504  1  0.23399900  0.65586300  0.60287400  1
  O  O1505  1  0.32675300  0.74670600  0.52069800  1
  O  O1506  1  0.36860000  0.64755100  0.65646800  1
  C  C1507  1  0.40537600  0.67063000  0.66559400  1
  O  O1508  1  0.42755200  0.65086100  0.60637900  1
  C  C1509  1  0.45884700  0.62771300  0.61646400  1
  C  C1510  1  0.47324600  0.62785100  0.64855200  1
  C  C1511  1  0.60517000  0.67027100  0.50010100  1
  H  H1512  1  0.61348800  0.70303300  0.59174800  1
  C  C1513  1  0.60084900  0.65351300  0.55418200  1
  C  C1514  1  0.61974300  0.68020300  0.53124400  1
  C  C1515  1  0.59573900  0.67194400  0.58460500  1
  C  C1516  1  0.65335500  0.71948200  0.53924800  1
  O  O1517  1  0.56732800  0.65586000  0.60287000  1
  O  O1518  1  0.66007600  0.74670800  0.52069500  1
  H  H1519  1  0.67206700  0.72400200  0.56037700  1
  C  C1520  1  0.79218000  0.62770900  0.61646900  1
  O  O1521  1  0.76088400  0.65085700  0.60638500  1
  C  C1522  1  0.80657800  0.62784500  0.64855800  1
  C  C1523  1  0.73870400  0.67062000  0.66560000  1
  O  O1524  1  0.70193100  0.64753900  0.65647400  1
  H  H1525  1  0.55958800  0.80113400  0.51472600  1
  H  H1526  1  0.56339000  0.82047600  0.64878400  1
  H  H1527  1  0.56368600  0.82846500  0.56133300  1
  C  C1528  1  0.93850200  0.67027900  0.50010900  1
  O  O1529  1  0.90066400  0.65586200  0.60287800  1
  H  H1530  1  0.94682700  0.70303500  0.59175800  1
  C  C1531  1  0.93418300  0.65351800  0.55419000  1
  C  C1532  1  0.95307400  0.68021100  0.53125200  1
  C  C1533  1  0.92907500  0.67194700  0.58461400  1
  C  C1534  1  0.98668300  0.71949100  0.53925600  1
  O  O1535  1  0.99339600  0.74672100  0.52070600  1
  H  H1536  1  0.89295100  0.80114800  0.51472000  1
  H  H1537  1  0.89650900  0.82053900  0.64869600  1
  H  H1538  1  0.89704200  0.82847600  0.56132700  1
  O  O1539  1  0.08730890  0.98641200  0.56914000  1
  N  N1540  1  0.08556690  0.99098200  0.59780400  1
  O  O1541  1  0.20174200  0.98816800  0.64826100  1
  Zn  Zn1542  1  0.15401300  0.99415800  0.61868000  1
  C  C1543  1  0.04623640  0.96021900  0.60651500  1
  Cl  Cl1544  1  0.06120740  0.90784100  0.60682700  1
  H  H1545  1  0.07247660  0.94256700  0.51064300  1
  H  H1546  1  0.15788800  0.96915200  0.52611200  1
  C  C1547  1  0.17242900  0.94022700  0.52034600  1
  O  O1548  1  0.19344200  0.98031700  0.58445200  1
  O  O1549  1  0.13143200  0.95451800  0.65108200  1
  O  O1550  1  0.19116600  0.97885000  0.58478700  1
  C  C1551  1  0.20087800  0.94049400  0.57699800  1
  C  C1552  1  0.19662400  0.92120200  0.54388200  1
  C  C1553  1  0.17466700  0.96443500  0.66509600  1
  C  C1554  1  0.20401000  0.86142000  0.50559800  1
  H  H1555  1  0.20500400  0.86350100  0.63081900  1
  H  H1556  1  0.25425400  0.93348600  0.64515500  1
  C  C1557  1  0.23176400  0.85525700  0.64876200  1
  H  H1558  1  0.23828000  0.87360100  0.58275000  1
  C  C1559  1  0.21209100  0.88079800  0.53648700  1
  C  C1560  1  0.24236100  0.86053800  0.56036100  1
  O  O1561  1  0.42064100  0.98641000  0.56914300  1
  N  N1562  1  0.41890000  0.99098300  0.59780700  1
  H  H1563  1  0.31827900  0.93609300  0.65568300  1
  H  H1564  1  0.29715400  0.85682400  0.62143200  1
  C  C1565  1  0.33000500  0.96665900  0.60686700  1
  C  C1566  1  0.28867000  0.92145100  0.63872800  1
  C  C1567  1  0.28429800  0.87365800  0.64233800  1
  O  O1568  1  0.29631000  0.93128000  0.60747200  1
  H  H1569  1  0.30036300  0.85051500  0.52974000  1
  H  H1570  1  0.30687000  0.89808700  0.55247900  1
  C  C1571  1  0.29409900  0.86594300  0.55285800  1
  C  C1572  1  0.37957200  0.96021900  0.60652000  1
  Cl  Cl1573  1  0.39454500  0.90784200  0.60683100  1
  H  H1574  1  0.31647100  0.85154500  0.57031700  1
  H  H1575  1  0.40582300  0.94259500  0.51063300  1
  H  H1576  1  0.30865000  0.86712800  0.66223100  1
  C  C1577  1  0.53733800  0.86142000  0.50559600  1
  O  O1578  1  0.53507900  0.98817500  0.64826200  1
  Zn  Zn1579  1  0.48734900  0.99416100  0.61867900  1
  O  O1580  1  0.52450000  0.97885300  0.58478500  1
  H  H1581  1  0.53834700  0.86348700  0.63082800  1
  H  H1582  1  0.49123600  0.96916100  0.52610600  1
  C  C1583  1  0.53421000  0.94049600  0.57699600  1
  C  C1584  1  0.52995800  0.92120400  0.54387900  1
  C  C1585  1  0.54541900  0.88079800  0.53648600  1
  C  C1586  1  0.50577000  0.94023300  0.52034200  1
  O  O1587  1  0.52677600  0.98031900  0.58445000  1
  C  C1588  1  0.50800500  0.96443900  0.66509600  1
  O  O1589  1  0.46477200  0.95451900  0.65108200  1
  H  H1590  1  0.58757900  0.93348300  0.64514700  1
  H  H1591  1  0.65160300  0.93610500  0.65568100  1
  H  H1592  1  0.63049400  0.85682900  0.62142900  1
  C  C1593  1  0.66333800  0.96666200  0.60686300  1
  C  C1594  1  0.62200100  0.92145500  0.63872400  1
  C  C1595  1  0.61764300  0.87366300  0.64233600  1
  C  C1596  1  0.56511500  0.85525400  0.64876900  1
  O  O1597  1  0.62964400  0.93128300  0.60746800  1
  H  H1598  1  0.63368400  0.85050300  0.52974000  1
  H  H1599  1  0.64020000  0.89807500  0.55248000  1
  H  H1600  1  0.57160500  0.87360000  0.58275000  1
  C  C1601  1  0.57568400  0.86053500  0.56036100  1
  C  C1602  1  0.62742300  0.86593200  0.55285900  1
  H  H1603  1  0.64979100  0.85153000  0.57031700  1
  H  H1604  1  0.64200600  0.86713900  0.66222600  1
  O  O1605  1  0.75397800  0.98641200  0.56914100  1
  N  N1606  1  0.75223400  0.99098700  0.59780500  1
  C  C1607  1  0.71290500  0.96022300  0.60651700  1
  Zn  Zn1608  1  0.82068200  0.99416400  0.61867900  1
  Cl  Cl1609  1  0.72787900  0.90784500  0.60682700  1
  H  H1610  1  0.73914800  0.94255000  0.51064100  1
  H  H1611  1  0.82456100  0.96916100  0.52610900  1
  C  C1612  1  0.83910500  0.94023700  0.52034200  1
  C  C1613  1  0.84133100  0.96444800  0.66510000  1
  O  O1614  1  0.79810100  0.95452400  0.65108200  1
  O  O1615  1  0.85783600  0.97885400  0.58478700  1
  O  O1616  1  0.86011000  0.98032000  0.58445200  1
  O  O1617  1  0.86840500  0.98818500  0.64826700  1
  C  C1618  1  0.87068900  0.86143100  0.50559200  1
  H  H1619  1  0.92098400  0.93355400  0.64518800  1
  H  H1620  1  0.87160200  0.86364600  0.63078300  1
  C  C1621  1  0.89831700  0.85532600  0.64872300  1
  C  C1622  1  0.86754300  0.94049700  0.57699600  1
  C  C1623  1  0.86329900  0.92121100  0.54387800  1
  C  C1624  1  0.87876900  0.88080800  0.53648100  1
  H  H1625  1  0.90495400  0.87361100  0.58274400  1
  C  C1626  1  0.90903600  0.86054700  0.56035600  1
  H  H1627  1  0.98314200  0.85155900  0.57032200  1
  C  C1628  1  0.99667000  0.96666100  0.60686400  1
  H  H1629  1  0.98501300  0.93606200  0.65567700  1
  C  C1630  1  0.95535600  0.92146300  0.63873700  1
  C  C1631  1  0.95089200  0.87366800  0.64234200  1
  H  H1632  1  0.96376800  0.85682300  0.62144700  1
  O  O1633  1  0.96297500  0.93128400  0.60747800  1
  H  H1634  1  0.96704400  0.85051800  0.52974200  1
  H  H1635  1  0.97354500  0.89809500  0.55247500  1
  C  C1636  1  0.96077600  0.86595200  0.55285800  1
  H  H1637  1  0.97518500  0.86710400  0.66225400  1
  H  H1638  1  0.01298450  0.13980400  0.80117500  1
  O  O1639  1  0.01090310  0.10482800  0.76277300  1
  C  C1640  1  0.11899000  0.15292500  0.67200700  1
  C  C1641  1  0.14135300  0.15910800  0.70241000  1
  C  C1642  1  0.12025700  0.18285500  0.72625600  1
  C  C1643  1  0.14070500  0.18786500  0.75638600  1
  H  H1644  1  0.24906700  0.03015640  0.69171600  1
  O  O1645  1  0.31278300  0.00721984  0.68517700  1
  H  H1646  1  0.23029500  0.09690460  0.69130500  1
  H  H1647  1  0.27507800  0.12478000  0.72919800  1
  C  C1648  1  0.24641600  0.15229500  0.80167300  1
  C  C1649  1  0.27434100  0.13828800  0.77684600  1
  C  C1650  1  0.25406600  0.13527100  0.74664900  1
  C  C1651  1  0.20722700  0.14765000  0.73999400  1
  C  C1652  1  0.18352000  0.16968500  0.76410300  1
  C  C1653  1  0.18503400  0.14068700  0.70934900  1
  C  C1654  1  0.20324500  0.11336300  0.68624100  1
  C  C1655  1  0.20388600  0.17324300  0.79512200  1
  C  C1656  1  0.32560500  0.12759200  0.78181900  1
  O  O1657  1  0.34424000  0.10484400  0.76278400  1
  H  H1658  1  0.34631800  0.13982100  0.80118400  1
  C  C1659  1  0.26993000  0.00339814  0.69281500  1
  C  C1660  1  0.26002500  0.14331500  0.83226900  1
  C  C1661  1  0.45233100  0.15293600  0.67199900  1
  C  C1662  1  0.45359900  0.18286700  0.72624800  1
  H  H1663  1  0.56362600  0.09690410  0.69129900  1
  C  C1664  1  0.54055900  0.14764800  0.73998900  1
  C  C1665  1  0.51685300  0.16968400  0.76409700  1
  C  C1666  1  0.51837000  0.14069000  0.70934300  1
  C  C1667  1  0.47469300  0.15911700  0.70240300  1
  C  C1668  1  0.47404300  0.18787200  0.75637900  1
  C  C1669  1  0.53657900  0.11336500  0.68623500  1
  C  C1670  1  0.53721300  0.17323700  0.79511700  1
  C  C1671  1  0.57973800  0.15228300  0.80167000  1
  C  C1672  1  0.58739300  0.13526100  0.74664600  1
  H  H1673  1  0.58240700  0.03015790  0.69171300  1
  O  O1674  1  0.64612600  0.00722386  0.68518100  1
  H  H1675  1  0.60840500  0.12476800  0.72919700  1
  C  C1676  1  0.60766300  0.13827100  0.77684500  1
  C  C1677  1  0.65892100  0.12756500  0.78182000  1
  O  O1678  1  0.67755200  0.10481100  0.76278600  1
  H  H1679  1  0.67963500  0.13979000  0.80118600  1
  C  C1680  1  0.60327100  0.00340027  0.69281500  1
  C  C1681  1  0.59334100  0.14330000  0.83226600  1
  C  C1682  1  0.78566500  0.15293800  0.67199600  1
  C  C1683  1  0.80803000  0.15912000  0.70239900  1
  C  C1684  1  0.78693600  0.18286700  0.72624600  1
  C  C1685  1  0.80738200  0.18787200  0.75637600  1
  O  O1686  1  0.97944400  0.00721638  0.68516600  1
  H  H1687  1  0.91574400  0.03017380  0.69172100  1
  H  H1688  1  0.89696900  0.09691500  0.69129100  1
  H  H1689  1  0.94175000  0.12478000  0.72918700  1
  C  C1690  1  0.91308500  0.15228700  0.80166300  1
  C  C1691  1  0.94101000  0.13828100  0.77683600  1
  C  C1692  1  0.92073800  0.13527100  0.74663800  1
  C  C1693  1  0.87390100  0.14765400  0.73998300  1
  C  C1694  1  0.85019500  0.16968700  0.76409200  1
  C  C1695  1  0.85170900  0.14069600  0.70933700  1
  C  C1696  1  0.86992000  0.11337300  0.68622800  1
  C  C1697  1  0.87055700  0.17323800  0.79511200  1
  C  C1698  1  0.99227100  0.12757800  0.78180900  1
  C  C1699  1  0.93659800  0.00340968  0.69281700  1
  C  C1700  1  0.92669100  0.14330300  0.83225800  1
  H  H1701  1  0.08863200  0.19649500  0.72231100  1
  H  H1702  1  0.06587260  0.24477200  0.81637400  1
  H  H1703  1  0.06990670  0.20408000  0.66974100  1
  H  H1704  1  0.12203000  0.20581400  0.77354500  1
  O  O1705  1  0.14767400  0.20980600  0.82959500  1
  C  C1706  1  0.09922520  0.39409600  0.79945800  1
  C  C1707  1  0.12142700  0.36810100  0.81989000  1
  C  C1708  1  0.11930800  0.40100300  0.77044800  1
  C  C1709  1  0.18013900  0.31507900  0.82938700  1
  C  C1710  1  0.16552900  0.38857200  0.76314800  1
  C  C1711  1  0.19036700  0.36538600  0.78494500  1
  C  C1712  1  0.19069900  0.40477300  0.73713700  1
  C  C1713  1  0.16606800  0.35141400  0.81186400  1
  C  C1714  1  0.05737370  0.41744300  0.80904800  1
  H  H1715  1  0.42197900  0.19651300  0.72230100  1
  C  C1716  1  0.19184300  0.20627100  0.81902100  1
  O  O1717  1  0.22979400  0.22910400  0.83238100  1
  H  H1718  1  0.39919900  0.24476500  0.81637200  1
  H  H1719  1  0.45537100  0.20582400  0.77353700  1
  H  H1720  1  0.40325600  0.20409700  0.66973000  1
  O  O1721  1  0.33217000  0.25898100  0.78039300  1
  H  H1722  1  0.22092800  0.36752700  0.67192200  1
  H  H1723  1  0.27475500  0.27809400  0.80346900  1
  C  C1724  1  0.31026400  0.26670300  0.80553100  1
  H  H1725  1  0.30486800  0.37736500  0.75668600  1
  H  H1726  1  0.26042700  0.34298500  0.79618400  1
  C  C1727  1  0.24258900  0.40585400  0.73749200  1
  C  C1728  1  0.26577300  0.38007000  0.75738000  1
  C  C1729  1  0.23969300  0.35928200  0.78014800  1
  C  C1730  1  0.45476500  0.36810100  0.81988800  1
  C  C1731  1  0.43256400  0.39409700  0.79945700  1
  C  C1732  1  0.45264600  0.40100400  0.77044600  1
  C  C1733  1  0.39071600  0.41744800  0.80904800  1
  H  H1734  1  0.75531300  0.19651100  0.72230100  1
  C  C1735  1  0.52517300  0.20626500  0.81901600  1
  O  O1736  1  0.48100500  0.20980300  0.82959000  1
  O  O1737  1  0.56312600  0.22909700  0.83237500  1
  H  H1738  1  0.73253200  0.24475800  0.81636400  1
  H  H1739  1  0.73658600  0.20409600  0.66973000  1
  H  H1740  1  0.55426200  0.36752500  0.67192000  1
  H  H1741  1  0.59376200  0.34298100  0.79618000  1
  C  C1742  1  0.51347300  0.31507400  0.82938200  1
  C  C1743  1  0.49886600  0.38857100  0.76314500  1
  C  C1744  1  0.52370300  0.36538400  0.78494200  1
  C  C1745  1  0.52403500  0.40477200  0.73713400  1
  C  C1746  1  0.57592600  0.40585300  0.73749000  1
  C  C1747  1  0.59910900  0.38006800  0.75737600  1
  C  C1748  1  0.57302900  0.35928000  0.78014400  1
  C  C1749  1  0.49940400  0.35141200  0.81186100  1
  O  O1750  1  0.66550400  0.25898200  0.78038700  1
  H  H1751  1  0.63820400  0.37736300  0.75668200  1
  H  H1752  1  0.60808700  0.27808900  0.80346400  1
  C  C1753  1  0.64359700  0.26669900  0.80552500  1
  C  C1754  1  0.78809400  0.36809400  0.81988800  1
  C  C1755  1  0.76589400  0.39409200  0.79945700  1
  C  C1756  1  0.78597600  0.40100100  0.77044700  1
  C  C1757  1  0.72404400  0.41744100  0.80904900  1
  H  H1758  1  0.78870900  0.20582200  0.77353500  1
  O  O1759  1  0.81434200  0.20979600  0.82958400  1
  C  C1760  1  0.85851300  0.20626200  0.81901300  1
  O  O1761  1  0.89646200  0.22909400  0.83237500  1
  C  C1762  1  0.84680300  0.31506900  0.82938200  1
  C  C1763  1  0.83219500  0.38856700  0.76314600  1
  C  C1764  1  0.85703300  0.36537900  0.78494200  1
  C  C1765  1  0.83273300  0.35140600  0.81186100  1
  C  C1766  1  0.85736400  0.40476800  0.73713300  1
  O  O1767  1  0.99884600  0.25898900  0.78039400  1
  H  H1768  1  0.88761300  0.36751600  0.67192000  1
  H  H1769  1  0.94142300  0.27808800  0.80346800  1
  C  C1770  1  0.97693500  0.26670300  0.80553000  1
  H  H1771  1  0.97153200  0.37735200  0.75667900  1
  H  H1772  1  0.92709000  0.34297400  0.79617800  1
  C  C1773  1  0.90925400  0.40584600  0.73748800  1
  C  C1774  1  0.93243700  0.38006000  0.75737400  1
  C  C1775  1  0.90635800  0.35927300  0.78014300  1
  O  O1776  1  0.01133180  0.47651200  0.73693800  1
  O  O1777  1  0.03206710  0.43264100  0.78984000  1
  H  H1778  1  0.10324000  0.41915600  0.75666600  1
  H  H1779  1  0.12744300  0.41598700  0.70754600  1
  H  H1780  1  0.01301120  0.41776300  0.71912700  1
  C  C1781  1  0.19427600  0.45019600  0.69313100  1
  C  C1782  1  0.16683000  0.42278300  0.71208600  1
  O  O1783  1  0.01092580  0.60484400  0.76277400  1
  C  C1784  1  0.20325500  0.61336700  0.68623600  1
  O  O1785  1  0.31277200  0.50721100  0.68517600  1
  C  C1786  1  0.26992500  0.50340200  0.69282500  1
  H  H1787  1  0.34634900  0.41778100  0.71914000  1
  C  C1788  1  0.27007200  0.43634900  0.72082000  1
  C  C1789  1  0.24476300  0.46265500  0.70222600  1
  C  C1790  1  0.32441500  0.44315700  0.72530700  1
  O  O1791  1  0.34466000  0.47653100  0.73694500  1
  O  O1792  1  0.36541300  0.43265200  0.78984200  1
  H  H1793  1  0.46077900  0.41598700  0.70754400  1
  H  H1794  1  0.43657900  0.41915900  0.75666500  1
  H  H1795  1  0.24906900  0.53016500  0.69172900  1
  H  H1796  1  0.23030500  0.59691000  0.69129900  1
  O  O1797  1  0.34424500  0.60482800  0.76277800  1
  H  H1798  1  0.27508900  0.62477600  0.72919300  1
  C  C1799  1  0.32561400  0.62757900  0.78181400  1
  C  C1800  1  0.50016600  0.42278200  0.71208300  1
  C  C1801  1  0.52761200  0.45019700  0.69312900  1
  C  C1802  1  0.60326100  0.50340200  0.69282400  1
  C  C1803  1  0.60340800  0.43634900  0.72081800  1
  C  C1804  1  0.57809900  0.46265600  0.70222400  1
  O  O1805  1  0.64610900  0.50721200  0.68517700  1
  H  H1806  1  0.67968600  0.41778300  0.71913700  1
  C  C1807  1  0.65775100  0.44315700  0.72530600  1
  H  H1808  1  0.76991000  0.41915700  0.75666700  1
  O  O1809  1  0.67799400  0.47653100  0.73694600  1
  O  O1810  1  0.69874200  0.43264700  0.78984400  1
  H  H1811  1  0.58240500  0.53016500  0.69172600  1
  H  H1812  1  0.56363900  0.59691200  0.69129500  1
  C  C1813  1  0.53658900  0.61336900  0.68623200  1
  O  O1814  1  0.67758900  0.60484400  0.76276900  1
  H  H1815  1  0.60842600  0.62478500  0.72918700  1
  C  C1816  1  0.65895600  0.62759200  0.78180600  1
  H  H1817  1  0.79410800  0.41598700  0.70754500  1
  C  C1818  1  0.86094300  0.45019000  0.69312700  1
  C  C1819  1  0.83349500  0.42277900  0.71208300  1
  O  O1820  1  0.97944100  0.50720600  0.68517700  1
  C  C1821  1  0.93659200  0.50339400  0.69282200  1
  C  C1822  1  0.93673800  0.43633900  0.72081400  1
  C  C1823  1  0.91143000  0.46264700  0.70222000  1
  C  C1824  1  0.99108200  0.44314100  0.72529800  1
  C  C1825  1  0.86992200  0.61336400  0.68623800  1
  H  H1826  1  0.91573600  0.53015700  0.69172400  1
  H  H1827  1  0.89697200  0.59690600  0.69130000  1
  H  H1828  1  0.94176000  0.62478200  0.72919100  1
  C  C1829  1  0.99229400  0.62759600  0.78180900  1
  H  H1830  1  0.06589140  0.74476500  0.81637000  1
  H  H1831  1  0.08865370  0.69651000  0.72230900  1
  H  H1832  1  0.06992040  0.70408900  0.66973900  1
  C  C1833  1  0.11900000  0.65293200  0.67200500  1
  C  C1834  1  0.14136800  0.65911600  0.70240700  1
  C  C1835  1  0.12027700  0.68286700  0.72625300  1
  O  O1836  1  0.14769800  0.70981300  0.82959000  1
  H  H1837  1  0.12205500  0.70582700  0.77354100  1
  C  C1838  1  0.14072600  0.68787500  0.75638300  1
  H  H1839  1  0.01301090  0.63982600  0.80117200  1
  C  C1840  1  0.19186600  0.70627400  0.81901700  1
  C  C1841  1  0.20724200  0.64765400  0.73999000  1
  C  C1842  1  0.18353900  0.66969100  0.76409800  1
  C  C1843  1  0.18504700  0.64069300  0.70934500  1
  C  C1844  1  0.20390500  0.67324500  0.79511800  1
  O  O1845  1  0.22981900  0.72910500  0.83237700  1
  C  C1846  1  0.18016200  0.81508100  0.82938000  1
  H  H1847  1  0.26044800  0.84298400  0.79617300  1
  C  C1848  1  0.16609100  0.85141600  0.81185700  1
  C  C1849  1  0.24643100  0.65229300  0.80166800  1
  C  C1850  1  0.27435300  0.63828300  0.77684100  1
  C  C1851  1  0.25407900  0.63527000  0.74664400  1
  H  H1852  1  0.39922600  0.74477300  0.81636700  1
  H  H1853  1  0.40325100  0.70408900  0.66973700  1
  H  H1854  1  0.34632900  0.63980500  0.80117900  1
  C  C1855  1  0.31028900  0.76670700  0.80552600  1
  O  O1856  1  0.33219600  0.75898700  0.78038800  1
  C  C1857  1  0.26003900  0.64331100  0.83226400  1
  H  H1858  1  0.42198400  0.69650700  0.72230700  1
  H  H1859  1  0.45538700  0.70582500  0.77353900  1
  C  C1860  1  0.52520100  0.70627500  0.81901300  1
  C  C1861  1  0.45233200  0.65293200  0.67200200  1
  C  C1862  1  0.51687400  0.66969200  0.76409500  1
  C  C1863  1  0.51838100  0.64069500  0.70934100  1
  C  C1864  1  0.47470100  0.65911700  0.70240400  1
  C  C1865  1  0.45360800  0.68286500  0.72625100  1
  C  C1866  1  0.47405900  0.68787400  0.75638000  1
  O  O1867  1  0.48103300  0.70981200  0.82958700  1
  H  H1868  1  0.27477900  0.77809500  0.80346400  1
  C  C1869  1  0.51349800  0.81508100  0.82937900  1
  C  C1870  1  0.49942700  0.85141700  0.81185500  1
  C  C1871  1  0.53724200  0.67324800  0.79511400  1
  C  C1872  1  0.57977100  0.65229900  0.80166300  1
  C  C1873  1  0.60769300  0.63829100  0.77683500  1
  C  C1874  1  0.58741700  0.63527700  0.74663800  1
  C  C1875  1  0.54057700  0.64765700  0.73998500  1
  C  C1876  1  0.64362600  0.76670800  0.80552600  1
  O  O1877  1  0.66553500  0.75898900  0.78038900  1
  C  C1878  1  0.59338100  0.64331700  0.83225800  1
  O  O1879  1  0.56315300  0.72910600  0.83237400  1
  H  H1880  1  0.73256200  0.74477200  0.81636900  1
  H  H1881  1  0.75531400  0.69649800  0.72231300  1
  H  H1882  1  0.78872000  0.70582000  0.77354400  1
  H  H1883  1  0.73657700  0.70407800  0.66974400  1
  H  H1884  1  0.67967100  0.63981900  0.80117100  1
  C  C1885  1  0.78566300  0.65292400  0.67200800  1
  C  C1886  1  0.80803200  0.65910900  0.70241000  1
  C  C1887  1  0.78693900  0.68285800  0.72625600  1
  C  C1888  1  0.80739100  0.68786900  0.75638500  1
  O  O1889  1  0.81436800  0.70981100  0.82959100  1
  H  H1890  1  0.60811700  0.77809700  0.80346400  1
  C  C1891  1  0.84682800  0.81508400  0.82938000  1
  H  H1892  1  0.59378400  0.84298500  0.79617300  1
  C  C1893  1  0.83275400  0.85141900  0.81185800  1
  C  C1894  1  0.85853600  0.70627500  0.81901700  1
  C  C1895  1  0.87391100  0.64765300  0.73999000  1
  C  C1896  1  0.85020800  0.66968900  0.76410000  1
  C  C1897  1  0.85171400  0.64068900  0.70934600  1
  C  C1898  1  0.87057800  0.67324800  0.79511800  1
  O  O1899  1  0.89648700  0.72911000  0.83237600  1
  C  C1900  1  0.91310900  0.65230100  0.80166700  1
  C  C1901  1  0.94103000  0.63829200  0.77683900  1
  C  C1902  1  0.92075100  0.63527400  0.74664300  1
  C  C1903  1  0.97695800  0.76670600  0.80552600  1
  O  O1904  1  0.99886300  0.75898000  0.78038900  1
  C  C1905  1  0.92672400  0.64332400  0.83226300  1
  H  H1906  1  0.94145000  0.77810000  0.80346400  1
  H  H1907  1  0.92711000  0.84298700  0.79617200  1
  H  H1908  1  0.12745600  0.91597800  0.70753700  1
  H  H1909  1  0.10326000  0.91915400  0.75665700  1
  C  C1910  1  0.12145100  0.86810400  0.81988300  1
  C  C1911  1  0.09924820  0.89409800  0.79945000  1
  C  C1912  1  0.11932800  0.90100100  0.77043900  1
  C  C1913  1  0.16554800  0.88856800  0.76313800  1
  C  C1914  1  0.19038800  0.86538500  0.78493600  1
  C  C1915  1  0.16684300  0.92277300  0.71207400  1
  C  C1916  1  0.05739840  0.91744700  0.80904000  1
  O  O1917  1  0.01132980  0.97654600  0.73694200  1
  O  O1918  1  0.03209410  0.93264800  0.78983300  1
  C  C1919  1  0.19071500  0.90476600  0.73712500  1
  C  C1920  1  0.19428700  0.95018700  0.69311800  1
  H  H1921  1  0.01302750  0.91779800  0.71913300  1
  H  H1922  1  0.22102100  0.86749500  0.67194300  1
  C  C1923  1  0.27008600  0.93634100  0.72080400  1
  C  C1924  1  0.24260500  0.90584700  0.73747900  1
  C  C1925  1  0.26579100  0.88006500  0.75736600  1
  C  C1926  1  0.23971400  0.85928000  0.78013700  1
  C  C1927  1  0.24477500  0.96264600  0.70221000  1
  H  H1928  1  0.30488600  0.87735900  0.75667100  1
  H  H1929  1  0.34636200  0.91777400  0.71911300  1
  C  C1930  1  0.32442900  0.94314700  0.72528800  1
  C  C1931  1  0.43258400  0.89409800  0.79944900  1
  C  C1932  1  0.39073300  0.91744600  0.80903800  1
  O  O1933  1  0.34467400  0.97651700  0.73693300  1
  O  O1934  1  0.36542600  0.93264300  0.78983100  1
  H  H1935  1  0.43659700  0.91915600  0.75665700  1
  C  C1936  1  0.45478700  0.86810400  0.81988200  1
  H  H1937  1  0.46079500  0.91598300  0.70753600  1
  C  C1938  1  0.52762600  0.95019000  0.69311800  1
  C  C1939  1  0.45266500  0.90100300  0.77043800  1
  C  C1940  1  0.49888600  0.88857100  0.76313800  1
  C  C1941  1  0.52372500  0.86538600  0.78493500  1
  C  C1942  1  0.52405300  0.90476900  0.73712500  1
  C  C1943  1  0.50018200  0.92277700  0.71207400  1
  H  H1944  1  0.55437700  0.86749700  0.67195000  1
  H  H1945  1  0.63822300  0.87736100  0.75667100  1
  H  H1946  1  0.67969900  0.91777100  0.71910800  1
  C  C1947  1  0.60342500  0.93634200  0.72080300  1
  C  C1948  1  0.57594300  0.90584900  0.73747900  1
  C  C1949  1  0.59912800  0.88006700  0.75736600  1
  C  C1950  1  0.57305100  0.85928200  0.78013700  1
  C  C1951  1  0.57811500  0.96264800  0.70220900  1
  C  C1952  1  0.65776800  0.94314500  0.72528600  1
  O  O1953  1  0.67801600  0.97651300  0.73693400  1
  H  H1954  1  0.79411800  0.91599400  0.70754200  1
  H  H1955  1  0.76992100  0.91916200  0.75666400  1
  C  C1956  1  0.78811300  0.86810400  0.81988600  1
  C  C1957  1  0.76590900  0.89410000  0.79945500  1
  C  C1958  1  0.78598900  0.90100800  0.77044400  1
  C  C1959  1  0.83221000  0.88857700  0.76314200  1
  C  C1960  1  0.83350500  0.92279000  0.71208100  1
  C  C1961  1  0.72405900  0.91744800  0.80904600  1
  O  O1962  1  0.69875000  0.93264500  0.78984000  1
  C  C1963  1  0.86094900  0.95020500  0.69312600  1
  C  C1964  1  0.85737700  0.90477900  0.73713000  1
  C  C1965  1  0.85705000  0.86539100  0.78493800  1
  H  H1966  1  0.88757200  0.86753700  0.67191000  1
  C  C1967  1  0.90926700  0.90586200  0.73748500  1
  C  C1968  1  0.93245300  0.88007700  0.75737000  1
  C  C1969  1  0.90637600  0.85928700  0.78013900  1
  C  C1970  1  0.93674700  0.93635900  0.72081300  1
  C  C1971  1  0.91143600  0.96266500  0.70221900  1
  H  H1972  1  0.97154800  0.87737100  0.75667400  1
  C  C1973  1  0.99109000  0.94317100  0.72530200  1
  H  H1974  1  0.02565320  0.13669800  0.87699100  1
  S  S1975  1  0.04254200  0.18306300  0.91430900  1
  O  O1976  1  0.03998790  0.16453700  0.87681200  1
  O  O1977  1  0.08841830  0.17207600  0.93047300  1
  O  O1978  1  0.09768820  0.08658970  0.87090800  1
  H  H1979  1  0.15842500  0.03372930  0.96790400  1
  H  H1980  1  0.13384700  0.13866100  0.85829300  1
  C  C1981  1  0.16270900  0.11864100  0.90218900  1
  C  C1982  1  0.13110500  0.11510500  0.87522500  1
  O  O1983  1  0.15779900  0.03306370  0.87834900  1
  C  C1984  1  0.16863700  0.08308950  0.92000500  1
  C  C1985  1  0.16218900  0.04099050  0.90645800  1
  C  C1986  1  0.18532700  0.19742700  0.89553400  1
  O  O1987  1  0.14326800  0.20690400  0.88442400  1
  H  H1988  1  0.16465000  0.01579040  0.91974000  1
  O  O1989  1  0.23274500  0.14766600  0.85365700  1
  H  H1990  1  0.23136800  0.19413300  0.94854500  1
  H  H1991  1  0.28503700  0.19022300  0.98393100  1
  C  C1992  1  0.18749200  0.15871400  0.91287400  1
  C  C1993  1  0.23894600  0.13457100  0.99115100  1
  C  C1994  1  0.21477600  0.12946500  0.96099200  1
  C  C1995  1  0.18799000  0.09039370  0.95113200  1
  C  C1996  1  0.18047700  0.05957840  0.97279900  1
  C  C1997  1  0.21448800  0.16293800  0.94117000  1
  H  H1998  1  0.29180900  0.13043800  0.83717500  1
  O  O1999  1  0.33078600  0.16124800  0.93115000  1
  H  H2000  1  0.35897200  0.13670800  0.87701300  1
  S  S2001  1  0.37587900  0.18308500  0.91432200  1
  O  O2002  1  0.42175900  0.17209900  0.93048300  1
  O  O2003  1  0.37331100  0.16454500  0.87682700  1
  O  O2004  1  0.43099800  0.08659230  0.87091200  1
  H  H2005  1  0.46716400  0.13865900  0.85829300  1
  C  C2006  1  0.46441900  0.11510400  0.87522600  1
  O  O2007  1  0.47659600  0.20690200  0.88441900  1
  O  O2008  1  0.56605900  0.14765500  0.85365300  1
  H  H2009  1  0.49173900  0.03373200  0.96790700  1
  H  H2010  1  0.56470000  0.19412800  0.94853900  1
  H  H2011  1  0.49795700  0.01578860  0.91974200  1
  C  C2012  1  0.51865400  0.19742300  0.89553000  1
  C  C2013  1  0.50195200  0.08308800  0.92000500  1
  C  C2014  1  0.52081600  0.15871100  0.91287100  1
  C  C2015  1  0.57227400  0.13456900  0.99114700  1
  C  C2016  1  0.54810100  0.12946200  0.96098900  1
  C  C2017  1  0.52130900  0.09039260  0.95113200  1
  C  C2018  1  0.51379500  0.05957910  0.97280000  1
  C  C2019  1  0.54781600  0.16293400  0.94116500  1
  C  C2020  1  0.49602600  0.11864000  0.90218900  1
  C  C2021  1  0.49549700  0.04098830  0.90646000  1
  O  O2022  1  0.49110200  0.03305980  0.87835100  1
  H  H2023  1  0.61837000  0.19021600  0.98392500  1
  H  H2024  1  0.62512100  0.13041900  0.83717400  1
  H  H2025  1  0.69231100  0.13668700  0.87699400  1
  S  S2026  1  0.70921000  0.18305900  0.91430700  1
  O  O2027  1  0.75508800  0.17207200  0.93046900  1
  O  O2028  1  0.66411400  0.16121900  0.93113200  1
  O  O2029  1  0.70664700  0.16452500  0.87681100  1
  O  O2030  1  0.99744400  0.16121600  0.93112800  1
  O  O2031  1  0.76434500  0.08657380  0.87089900  1
  C  C2032  1  0.79776400  0.11508700  0.87521400  1
  H  H2033  1  0.80050800  0.13864300  0.85828200  1
  C  C2034  1  0.82936900  0.11862400  0.90217900  1
  O  O2035  1  0.89940900  0.14765300  0.85364600  1
  H  H2036  1  0.82509900  0.03370730  0.96789300  1
  H  H2037  1  0.83130800  0.01577220  0.91972800  1
  C  C2038  1  0.82884700  0.04097270  0.90644700  1
  C  C2039  1  0.83529800  0.08307160  0.91999400  1
  C  C2040  1  0.84714600  0.05955900  0.97278800  1
  O  O2041  1  0.82445500  0.03304620  0.87833800  1
  H  H2042  1  0.95847400  0.13042500  0.83716400  1
  H  H2043  1  0.89802700  0.19411600  0.94853400  1
  H  H2044  1  0.95170100  0.19020500  0.98391800  1
  C  C2045  1  0.85198700  0.19741000  0.89552300  1
  C  C2046  1  0.85415200  0.15869600  0.91286300  1
  C  C2047  1  0.90560900  0.13455600  0.99113900  1
  C  C2048  1  0.88143800  0.12944800  0.96098100  1
  C  C2049  1  0.85465400  0.09037560  0.95112100  1
  C  C2050  1  0.88114800  0.16292100  0.94115800  1
  O  O2051  1  0.80992900  0.20688500  0.88441000  1
  C  C2052  1  0.04737310  0.24993300  0.83634900  1
  C  C2053  1  0.04267290  0.23982400  0.91741900  1
  N  N2054  1  0.07155160  0.24792000  0.86428200  1
  H  H2055  1  0.06925700  0.25446500  0.93617500  1
  Zn  Zn2056  1  0.13794100  0.24782000  0.86383600  1
  H  H2057  1  0.06741840  0.39144700  0.99236100  1
  H  H2058  1  0.12147900  0.35319800  0.87006300  1
  C  C2059  1  0.09850990  0.35818000  0.85000000  1
  O  O2060  1  0.05381930  0.35304900  0.85222600  1
  H  H2061  1  0.11608800  0.41723400  0.94863100  1
  C  C2062  1  0.07305720  0.42362000  0.98821500  1
  C  C2063  1  0.04906970  0.26018900  0.89061100  1
  O  O2064  1  0.00738424  0.31759700  0.94854900  1
  C  C2065  1  0.00185222  0.27307200  0.88922200  1
  H  H2066  1  0.18697300  0.38341600  0.89944800  1
  C  C2067  1  0.16237300  0.42070600  0.99020300  1
  C  C2068  1  0.19551300  0.32524600  0.94353200  1
  C  C2069  1  0.18763400  0.36788100  0.94964200  1
  C  C2070  1  0.19473500  0.30443400  0.91187900  1
  C  C2071  1  0.18474300  0.38389900  0.98142500  1
  C  C2072  1  0.19150900  0.39619200  0.92334500  1
  O  O2073  1  0.15302000  0.28589900  0.89917700  1
  O  O2074  1  0.14392300  0.28737000  0.83542800  1
  H  H2075  1  0.04381270  0.43079600  0.97378100  1
  H  H2076  1  0.29888200  0.22523400  0.91735000  1
  O  O2077  1  0.22629900  0.22055600  0.88965800  1
  C  C2078  1  0.32847600  0.25149700  0.91913000  1
  C  C2079  1  0.38070300  0.24993200  0.83634800  1
  Zn  Zn2080  1  0.47127400  0.24781800  0.86383100  1
  C  C2081  1  0.37601700  0.23984600  0.91742200  1
  N  N2082  1  0.40488500  0.24792300  0.86428000  1
  H  H2083  1  0.40260700  0.25449100  0.93617300  1
  O  O2084  1  0.22413800  0.31221000  0.84176800  1
  H  H2085  1  0.21413300  0.26895700  0.96383000  1
  C  C2086  1  0.21436500  0.31974100  0.99826900  1
  C  C2087  1  0.20748200  0.30152300  0.96816100  1
  O  O2088  1  0.23647400  0.29809200  0.89936800  1
  Zn  Zn2089  1  0.23937900  0.26508900  0.86368000  1
  N  N2090  1  0.30733900  0.26779700  0.86207600  1
  C  C2091  1  0.33188400  0.26123500  0.83480600  1
  O  O2092  1  0.34073000  0.31763800  0.94853500  1
  H  H2093  1  0.30053200  0.26949700  0.96592200  1
  C  C2094  1  0.33519400  0.27308800  0.88922100  1
  C  C2095  1  0.32158900  0.28126900  0.94679700  1
  H  H2096  1  0.40076800  0.39141700  0.99234300  1
  H  H2097  1  0.45481800  0.35319600  0.87006000  1
  C  C2098  1  0.43184800  0.35817900  0.84999700  1
  O  O2099  1  0.38715800  0.35305000  0.85222400  1
  H  H2100  1  0.44943300  0.41723500  0.94862100  1
  C  C2101  1  0.49571600  0.42070200  0.99019500  1
  C  C2102  1  0.40639700  0.42359200  0.98820500  1
  O  O2103  1  0.48636000  0.28589800  0.89917100  1
  C  C2104  1  0.38240900  0.26020100  0.89060900  1
  O  O2105  1  0.47725500  0.28736700  0.83542200  1
  H  H2106  1  0.37715000  0.43076900  0.97377400  1
  O  O2107  1  0.55962700  0.22055000  0.88965300  1
  C  C2108  1  0.71403500  0.24992200  0.83634000  1
  H  H2109  1  0.63221300  0.22520600  0.91733700  1
  C  C2110  1  0.70934700  0.23982000  0.91741200  1
  N  N2111  1  0.73821600  0.24790700  0.86427200  1
  C  C2112  1  0.66180600  0.25147000  0.91912100  1
  H  H2113  1  0.73593600  0.25446200  0.93616500  1
  O  O2114  1  0.55747200  0.31220300  0.84176300  1
  H  H2115  1  0.54747100  0.26895200  0.96382300  1
  H  H2116  1  0.52031800  0.38341300  0.89944000  1
  C  C2117  1  0.52885500  0.32524200  0.94352500  1
  C  C2118  1  0.54770900  0.31973700  0.99826100  1
  C  C2119  1  0.54082400  0.30151900  0.96815400  1
  C  C2120  1  0.52097800  0.36787800  0.94963500  1
  C  C2121  1  0.52807500  0.30443000  0.91187200  1
  C  C2122  1  0.51808600  0.38389500  0.98141800  1
  C  C2123  1  0.52485300  0.39618800  0.92333700  1
  O  O2124  1  0.56981300  0.29808600  0.89936100  1
  Zn  Zn2125  1  0.57271100  0.26508100  0.86367400  1
  H  H2126  1  0.73404500  0.39152200  0.99235700  1
  H  H2127  1  0.78814700  0.35318800  0.87006000  1
  C  C2128  1  0.76517700  0.35817000  0.84999700  1
  O  O2129  1  0.72048700  0.35303900  0.85222300  1
  N  N2130  1  0.64067100  0.26778400  0.86207000  1
  H  H2131  1  0.78275700  0.41721000  0.94861300  1
  C  C2132  1  0.73972600  0.42368500  0.98818800  1
  H  H2133  1  0.63385500  0.26945900  0.96591300  1
  C  C2134  1  0.66852500  0.27306900  0.88921500  1
  C  C2135  1  0.65491600  0.28123500  0.94679200  1
  C  C2136  1  0.71574000  0.26017900  0.89060200  1
  C  C2137  1  0.66521600  0.26122600  0.83480000  1
  O  O2138  1  0.67405900  0.31760400  0.94853600  1
  H  H2139  1  0.71050000  0.43086900  0.97374200  1
  Zn  Zn2140  1  0.80460400  0.24780400  0.86382500  1
  H  H2141  1  0.96554000  0.22520400  0.91733900  1
  O  O2142  1  0.89295800  0.22054100  0.88965000  1
  C  C2143  1  0.99513000  0.25147000  0.91912500  1
  H  H2144  1  0.85365500  0.38339300  0.89944300  1
  C  C2145  1  0.85429400  0.36785400  0.94963700  1
  C  C2146  1  0.85138500  0.38386800  0.98141900  1
  C  C2147  1  0.82903000  0.42068500  0.99019000  1
  C  C2148  1  0.85819000  0.39616600  0.92334100  1
  O  O2149  1  0.81968100  0.28587600  0.89916900  1
  O  O2150  1  0.81058700  0.28735800  0.83541900  1
  C  C2151  1  0.86216100  0.32521600  0.94352800  1
  O  O2152  1  0.89080100  0.31220000  0.84176500  1
  H  H2153  1  0.96714800  0.26945700  0.96591000  1
  C  C2154  1  0.98823000  0.28123200  0.94679600  1
  C  C2155  1  0.99855200  0.26123200  0.83480600  1
  C  C2156  1  0.86139300  0.30440900  0.91187500  1
  H  H2157  1  0.88074200  0.26891700  0.96382900  1
  C  C2158  1  0.88096300  0.31969700  0.99827000  1
  C  C2159  1  0.87410000  0.30148600  0.96816000  1
  O  O2160  1  0.90313400  0.29807400  0.89936500  1
  Zn  Zn2161  1  0.90604200  0.26507700  0.86367500  1
  N  N2162  1  0.97400300  0.26778600  0.86207500  1
  H  H2163  1  0.04938710  0.42256200  0.83337000  1
  H  H2164  1  0.12687100  0.46611100  0.97010600  1
  C  C2165  1  0.12188200  0.43350100  0.97206700  1
  O  O2166  1  0.20242000  0.43408800  0.92801700  1
  H  H2167  1  0.16462700  0.51579800  0.91974600  1
  H  H2168  1  0.15840000  0.53374800  0.96790900  1
  C  C2169  1  0.16863100  0.58309800  0.92000600  1
  C  C2170  1  0.16271300  0.61864900  0.90218800  1
  C  C2171  1  0.13110900  0.61511500  0.87522300  1
  C  C2172  1  0.16217100  0.54099700  0.90646200  1
  O  O2173  1  0.09768510  0.58660600  0.87090800  1
  O  O2174  1  0.15777800  0.53306600  0.87835300  1
  C  C2175  1  0.18798500  0.59040200  0.95113300  1
  C  C2176  1  0.18046100  0.55959200  0.97280200  1
  C  C2177  1  0.23895400  0.63457500  0.99114800  1
  C  C2178  1  0.21478300  0.62947000  0.96098900  1
  H  H2179  1  0.02565690  0.63671800  0.87702700  1
  H  H2180  1  0.13386000  0.63866800  0.85828900  1
  H  H2181  1  0.38272900  0.42256400  0.83337000  1
  H  H2182  1  0.46019900  0.46610600  0.97010700  1
  C  C2183  1  0.45522100  0.43349400  0.97206100  1
  H  H2184  1  0.49797000  0.51579300  0.91973800  1
  H  H2185  1  0.49173600  0.53374200  0.96790100  1
  C  C2186  1  0.50197200  0.58309300  0.91999800  1
  C  C2187  1  0.52132200  0.59039700  0.95112600  1
  C  C2188  1  0.51379600  0.55958600  0.97279500  1
  C  C2189  1  0.49605500  0.61864400  0.90218000  1
  C  C2190  1  0.46445500  0.61511000  0.87521400  1
  C  C2191  1  0.49551600  0.54099200  0.90645400  1
  O  O2192  1  0.43103300  0.58659900  0.87089600  1
  O  O2193  1  0.49112700  0.53306200  0.87834500  1
  H  H2194  1  0.29182000  0.63043100  0.83717000  1
  H  H2195  1  0.35900100  0.63670800  0.87699900  1
  H  H2196  1  0.46720600  0.63866500  0.85828100  1
  H  H2197  1  0.71605600  0.42255400  0.83337200  1
  O  O2198  1  0.53576300  0.43408400  0.92801000  1
  H  H2199  1  0.79359900  0.46610400  0.97006000  1
  C  C2200  1  0.78856400  0.43349900  0.97204200  1
  C  C2201  1  0.57228700  0.63457000  0.99114400  1
  C  C2202  1  0.54811800  0.62946500  0.96098400  1
  C  C2203  1  0.79780000  0.61511300  0.87522000  1
  O  O2204  1  0.76438200  0.58660000  0.87090200  1
  H  H2205  1  0.62516400  0.63043800  0.83716300  1
  H  H2206  1  0.69234000  0.63670600  0.87699500  1
  H  H2207  1  0.80054900  0.63866800  0.85828700  1
  C  C2208  1  0.82940000  0.61865000  0.90218700  1
  O  O2209  1  0.86911600  0.43406000  0.92801500  1
  H  H2210  1  0.83133000  0.51580100  0.91974300  1
  H  H2211  1  0.82508800  0.53374700  0.96790600  1
  C  C2212  1  0.83532100  0.58310000  0.92000500  1
  C  C2213  1  0.90561300  0.63458500  0.99115700  1
  C  C2214  1  0.88145300  0.62947700  0.96099400  1
  C  C2215  1  0.85466700  0.59040600  0.95113400  1
  C  C2216  1  0.84714500  0.55959300  0.97280100  1
  C  C2217  1  0.82887200  0.54100000  0.90646000  1
  O  O2218  1  0.82448600  0.53307000  0.87835100  1
  H  H2219  1  0.95850900  0.63044800  0.83716700  1
  C  C2220  1  0.04739520  0.74993500  0.83634500  1
  Zn  Zn2221  1  0.13796500  0.74782700  0.86383100  1
  C  C2222  1  0.04271070  0.73986700  0.91742100  1
  C  C2223  1  0.04910160  0.76021400  0.89060500  1
  S  S2224  1  0.04257150  0.68310500  0.91432900  1
  N  N2225  1  0.07157700  0.74793100  0.86427800  1
  O  O2226  1  0.08845460  0.67212200  0.93048800  1
  O  O2227  1  0.03999360  0.66455600  0.87683600  1
  O  O2228  1  0.14328800  0.70691000  0.88441800  1
  H  H2229  1  0.06930310  0.75451500  0.93617000  1
  C  C2230  1  0.18534600  0.69743200  0.89552900  1
  C  C2231  1  0.00188690  0.77310200  0.88921600  1
  C  C2232  1  0.18750600  0.65871900  0.91287000  1
  O  O2233  1  0.23275900  0.64766500  0.85365300  1
  Zn  Zn2234  1  0.23940300  0.76509200  0.86367400  1
  H  H2235  1  0.23139300  0.69413400  0.94853800  1
  C  C2236  1  0.21450500  0.66294100  0.94116400  1
  O  O2237  1  0.22631900  0.72055900  0.88965300  1
  H  H2238  1  0.21417300  0.76896100  0.96382200  1
  C  C2239  1  0.19554200  0.82524800  0.94352700  1
  C  C2240  1  0.19476400  0.80443900  0.91187300  1
  O  O2241  1  0.15304900  0.78590700  0.89917100  1
  O  O2242  1  0.00741150  0.81767300  0.94851800  1
  O  O2243  1  0.14394600  0.78737300  0.83542000  1
  C  C2244  1  0.20751900  0.80152700  0.96815500  1
  O  O2245  1  0.22416100  0.81221300  0.84176200  1
  C  C2246  1  0.21440100  0.81974200  0.99826200  1
  O  O2247  1  0.23650200  0.79809400  0.89936300  1
  H  H2248  1  0.12150500  0.85320200  0.87005600  1
  O  O2249  1  0.05384460  0.85305600  0.85222000  1
  C  C2250  1  0.38072900  0.74993700  0.83634300  1
  H  H2251  1  0.29890500  0.72523000  0.91734200  1
  H  H2252  1  0.28505700  0.69021900  0.98392600  1
  C  C2253  1  0.32849900  0.75149300  0.91912400  1
  C  C2254  1  0.37604000  0.73984300  0.91741500  1
  C  C2255  1  0.38243300  0.76020100  0.89060400  1
  C  C2256  1  0.33190900  0.76123800  0.83480200  1
  S  S2257  1  0.37590200  0.68308100  0.91431100  1
  N  N2258  1  0.40491100  0.74792700  0.86427500  1
  O  O2259  1  0.33080700  0.66124200  0.93113600  1
  O  O2260  1  0.37333700  0.66454600  0.87681500  1
  H  H2261  1  0.40262900  0.75448500  0.93616800  1
  N  N2262  1  0.30736400  0.76779800  0.86207100  1
  C  C2263  1  0.33521700  0.77308800  0.88921600  1
  O  O2264  1  0.42178100  0.67209300  0.93047200  1
  H  H2265  1  0.30056300  0.76948500  0.96591900  1
  C  C2266  1  0.32161200  0.78126100  0.94679300  1
  Zn  Zn2267  1  0.47129900  0.74782400  0.86382800  1
  C  C2268  1  0.51868200  0.69742900  0.89552500  1
  C  C2269  1  0.52084400  0.65871500  0.91286500  1
  O  O2270  1  0.47662300  0.70690700  0.88441500  1
  H  H2271  1  0.54750300  0.76895800  0.96382100  1
  O  O2272  1  0.34074600  0.81763200  0.94853100  1
  C  C2273  1  0.52887400  0.82524600  0.94352500  1
  C  C2274  1  0.54773200  0.81974100  0.99826100  1
  C  C2275  1  0.54084900  0.80152400  0.96815300  1
  C  C2276  1  0.52809600  0.80443600  0.91187200  1
  O  O2277  1  0.48638100  0.78590300  0.89916900  1
  O  O2278  1  0.47728100  0.78737300  0.83541900  1
  O  O2279  1  0.38717900  0.85305400  0.85221800  1
  H  H2280  1  0.45483800  0.85320100  0.87005400  1
  O  O2281  1  0.55749700  0.81221300  0.84176000  1
  O  O2282  1  0.56610300  0.64766900  0.85364800  1
  Zn  Zn2283  1  0.57273700  0.76509100  0.86367300  1
  H  H2284  1  0.63223700  0.72522400  0.91734000  1
  H  H2285  1  0.56472500  0.69413100  0.94853500  1
  H  H2286  1  0.61839300  0.69021200  0.98392200  1
  C  C2287  1  0.54783900  0.66293700  0.94116000  1
  O  O2288  1  0.55965400  0.72055700  0.88965000  1
  C  C2289  1  0.66183000  0.75148800  0.91912300  1
  C  C2290  1  0.66524500  0.76123800  0.83480200  1
  N  N2291  1  0.64069800  0.76779700  0.86207000  1
  C  C2292  1  0.66855000  0.77308500  0.88921700  1
  O  O2293  1  0.66413900  0.66123500  0.93113200  1
  H  H2294  1  0.63389000  0.76947600  0.96591800  1
  C  C2295  1  0.65494000  0.78125300  0.94679300  1
  C  C2296  1  0.71406400  0.74993700  0.83634400  1
  Zn  Zn2297  1  0.80463400  0.74782500  0.86383000  1
  C  C2298  1  0.70937100  0.73983800  0.91741500  1
  C  C2299  1  0.71576600  0.76019800  0.89060500  1
  S  S2300  1  0.70923600  0.68307700  0.91430900  1
  N  N2301  1  0.73824500  0.74792600  0.86427600  1
  O  O2302  1  0.75511300  0.67208900  0.93047200  1
  O  O2303  1  0.70667600  0.66454500  0.87681300  1
  O  O2304  1  0.80996200  0.70691100  0.88441900  1
  H  H2305  1  0.73596000  0.75448000  0.93616900  1
  O  O2306  1  0.56983400  0.79809300  0.89936100  1
  O  O2307  1  0.67407300  0.81762500  0.94853300  1
  O  O2308  1  0.81971300  0.78590600  0.89917100  1
  O  O2309  1  0.81061400  0.78737300  0.83542000  1
  H  H2310  1  0.78816500  0.85319300  0.87005700  1
  O  O2311  1  0.72050600  0.85305300  0.85222200  1
  C  C2312  1  0.86220700  0.82524700  0.94352700  1
  O  O2313  1  0.99748100  0.66127600  0.93116500  1
  O  O2314  1  0.89944700  0.64767600  0.85365300  1
  Zn  Zn2315  1  0.90607100  0.76509600  0.86367400  1
  H  H2316  1  0.89805500  0.69414300  0.94854300  1
  C  C2317  1  0.85202100  0.69743400  0.89553000  1
  C  C2318  1  0.85418400  0.65872300  0.91287100  1
  C  C2319  1  0.88117400  0.66294800  0.94116900  1
  O  O2320  1  0.89299300  0.72056300  0.88965400  1
  H  H2321  1  0.88085600  0.76896400  0.96382000  1
  C  C2322  1  0.99517100  0.75152000  0.91912900  1
  C  C2323  1  0.99857600  0.76123900  0.83480200  1
  H  H2324  1  0.95169500  0.69024500  0.98394700  1
  H  H2325  1  0.96557500  0.72525800  0.91735400  1
  N  N2326  1  0.97403200  0.76780500  0.86207100  1
  H  H2327  1  0.96725900  0.76952700  0.96592800  1
  C  C2328  1  0.98829000  0.78129800  0.94679300  1
  O  O2329  1  0.89082800  0.81221700  0.84176200  1
  C  C2330  1  0.88107700  0.81974300  0.99826100  1
  C  C2331  1  0.87419300  0.80152700  0.96815300  1
  C  C2332  1  0.86142800  0.80443900  0.91187300  1
  O  O2333  1  0.90316600  0.79809700  0.89936200  1
  H  H2334  1  0.04941140  0.92256600  0.83336200  1
  H  H2335  1  0.06743860  0.89141000  0.99235700  1
  C  C2336  1  0.09853510  0.85818400  0.84999300  1
  H  H2337  1  0.04381400  0.93075500  0.97378300  1
  H  H2338  1  0.12686100  0.96609700  0.97011100  1
  H  H2339  1  0.11609600  0.91722300  0.94862900  1
  H  H2340  1  0.18699100  0.88342000  0.89944500  1
  C  C2341  1  0.18765500  0.86788100  0.94963900  1
  C  C2342  1  0.18476200  0.88389600  0.98142200  1
  C  C2343  1  0.16238400  0.92069800  0.99020100  1
  C  C2344  1  0.12188500  0.93348500  0.97206800  1
  C  C2345  1  0.07306370  0.92358400  0.98821500  1
  C  C2346  1  0.19152300  0.89619400  0.92334200  1
  O  O2347  1  0.20242400  0.93409100  0.92801600  1
  H  H2348  1  0.38274700  0.92256600  0.83336000  1
  H  H2349  1  0.40077100  0.89141400  0.99235500  1
  C  C2350  1  0.43186900  0.85818300  0.84999100  1
  H  H2351  1  0.37715000  0.93075900  0.97377900  1
  H  H2352  1  0.46019900  0.96609600  0.97010500  1
  H  H2353  1  0.44943100  0.91722100  0.94862600  1
  C  C2354  1  0.45522000  0.93348500  0.97206400  1
  C  C2355  1  0.40639800  0.92358800  0.98821100  1
  H  H2356  1  0.52032600  0.88341700  0.89944200  1
  C  C2357  1  0.52098900  0.86787900  0.94963600  1
  C  C2358  1  0.51809500  0.88389400  0.98142000  1
  C  C2359  1  0.49571800  0.92069700  0.99019900  1
  C  C2360  1  0.52485800  0.89619200  0.92334000  1
  O  O2361  1  0.53576000  0.93408900  0.92801300  1
  H  H2362  1  0.71607600  0.92256700  0.83336900  1
  H  H2363  1  0.71045600  0.93071300  0.97379600  1
  H  H2364  1  0.73410200  0.89137100  0.99236200  1
  C  C2365  1  0.76519600  0.85818000  0.84999500  1
  H  H2366  1  0.79349000  0.96608200  0.97012300  1
  H  H2367  1  0.78274300  0.91721100  0.94863500  1
  H  H2368  1  0.85364400  0.88341900  0.89944600  1
  C  C2369  1  0.85431200  0.86787900  0.94963900  1
  C  C2370  1  0.85142100  0.88389100  0.98142300  1
  C  C2371  1  0.82903600  0.92068900  0.99020400  1
  C  C2372  1  0.78852800  0.93346800  0.97207500  1
  C  C2373  1  0.73971300  0.92354800  0.98822400  1
  C  C2374  1  0.85817200  0.89619300  0.92334400  1
  O  O2375  1  0.86906400  0.93409000  0.92801800  1
