data_I
_chemical_name_common  'nh3_target_1.5/cif/sample_0'
_cell_length_a  7.68164
_cell_length_b  9.09222
_cell_length_c 18.29678
_cell_angle_alpha 92.67198
_cell_angle_beta  90.50841
_cell_angle_gamma 94.63037
_space_group_name_H-M_alt      'P 1'


loop_
_space_group_symop_operation_xyz
  'x, y, z' 

loop_
_atom_site_label
_atom_site_fract_x
_atom_site_fract_y
_atom_site_fract_z
_atom_site_type_symbol
Cu0   0.7075617 0.90195376 0.6349777    Cu
Cu1   0.36384058 0.8548734 0.64771813    Cu
H2    0.88413835 0.28365004 0.9265484     H
H3    0.25238073 0.7183059 0.36853793     H
H4    0.98786306 0.7773027 0.00819145     H
H5    0.07363975 0.9813786 0.26854774     H
H6    0.5961088 0.19594991 0.08773801     H
H7    0.45954052 0.5655573 0.19342366     H
H8    0.5966264 0.32700706 0.30609566     H
H9    0.45773715 0.43720078 0.9768328     H
H10   0.73959655 0.65941656 0.005236371     H
H11   0.3198696 0.10407817 0.27339625     H
H12   0.17293775 0.4764217 0.35293403     H
H13   0.80786216 0.041751623 0.909089     H
C14   0.74858046 0.7060429 0.22592126     C
C15   0.3768804 0.19466138 0.03097736     C
C16   0.6792252 0.56707793 0.24986188     C
C17   0.8547467 0.025317073 0.963886     C
C18   0.20455039 0.7333038 0.31371617     C
C19   0.071762316 0.8431295 0.047361292     C
C20   0.98784316 0.91546243 0.23011588     C
C21   0.75826734 0.6834656 0.06350175     C
C22   0.29650056 0.07471371 0.21582483     C
C23   0.78131974 0.48630604 0.2955734     C
C24   0.10442606 0.22227025 0.9651135     C
C25   0.9526511 0.53871113 0.31482315     C
C26   0.6460747 0.7875262 0.10368137     C
C27   0.4105175 0.9721695 0.17577909     C
C28   0.5538963 0.8766845 0.98430043     C
O29   0.75516796  0.96348 0.0064931135     O
C30   0.5394299 0.87546724 0.06366668     C
C31   0.5181525 0.8852251 0.21584202     C
C32   0.41944432 0.9644713 0.09871723     C
C33   0.6377009 0.79579794 0.18079165     C
C34   0.50386566 0.8845581 0.29520828     C
C35   0.034865953 0.082001686 0.9871083     C
C36   0.023306012 0.6777366 0.29161704     C
C37   0.13845615 0.99655455 0.030575939     C
C38   0.27475867 0.27580237 0.985441     C
C39   0.91978216 0.76302266 0.24802843     C
C40   0.30856156 0.054474235 0.053747717     C
O41   0.36063644 0.840269 0.32426846     O
O42   0.4226693 0.8321727 0.9446471     O
O43   0.6351202 0.92911536 0.33486325     O
O44   0.010404796 0.31325412 0.9240494     O
O45   0.046533942 0.4479418 0.35606357     O
O46   0.3038528 0.7925283 0.27015823     O
O47   0.10630443 0.7893506 0.105092436     O
O48   0.6971534 0.92101884 0.95524186     O
O49   0.9524062 0.96821284 0.17222552     O
O50   0.54228115 0.2558018 0.051356904     O
O51   0.5128499 0.50683546 0.2304367     O
O52   0.7197336 0.3514762 0.32150194     O
O53   0.33528465 0.41189194 0.9606756     O
O54   0.87258387 0.62263614 0.09408034     O
O55   0.17487413 0.12740266 0.18596639     O
C56   0.5118802 0.6000363 0.64467704     C
C57   0.5622248 0.16324234 0.6358043     C
C58   0.52886385 0.44635162  0.64155     C
C59   0.5452714 0.3169312 0.63893175     C
O60   0.3601156 0.6483422 0.6446051     O
O61   0.71398926 0.11493637 0.63587624     O
O62   0.4243074 0.075466275 0.6329548     O
O63   0.6497974 0.6878122 0.64752656     O
N64   0.9573746  0.88372 0.6396976     N
N65   0.11182116 0.8779315 0.63992643     N
loop_
_geom_bond_atom_site_label_1
_geom_bond_atom_site_label_2
_geom_bond_distance
_geom_bond_site_symmetry_2
_ccdc_geom_bond_type
Cu0   Cu1    2.65457       .     S
Cu0   O43    5.53331       .     S
Cu0   O48    5.85573       .     S
Cu0   O61    1.93242   1_565     S
Cu0   O63    1.98608       .     S
Cu0   N64    1.94092       .     S
Cu1   Cu0    2.65457       .     S
Cu1   O41    5.91317       .     A
Cu1   O42    5.46247       .     A
Cu1   O60    1.87393       .     D
Cu1   O62    2.05275   1_565     A
Cu1   N65    1.96863       .     S
H2    O44    0.98747   1_655     S
H3    C18    1.08352       .     D
H4    C19    1.08478   1_655     S
H5    C20    1.08477   1_455     A
H6    O50    0.98764       .     S
H7    O51    0.98766       .     D
H8    O52    0.98929       .     S
H9    O53    0.98940       .     S
H10   C21    1.08415       .     S
H11   C22    1.08434       .     D
H12   O45    0.98738       .     D
H13   C17    1.08329       .     S
C14   C16    1.42099       .     A
C14   C33    1.49527       .     A
C14   C39    1.42216       .     A
C15   C38    1.41173   1_554     A
C15   C40    1.42092       .     A
C15   O50    1.38585       .     A
C16   C14    1.42099       .     A
C16   C23    1.41157       .     S
C16   O51    1.38581       .     S
C17   H13    1.08329       .     A
C17   O29    1.22105   1_546     S
C17   C35    1.48814   1_655     S
C18   H3     1.08352       .     S
C18   C36    1.48813       .     A
C18   O46    1.22126       .     A
C19   H4     1.08478   1_455     S
C19   C37    1.49335       .     A
C19   O47    1.22040       .     S
C20   H5     1.08477   1_655     S
C20   C39    1.49338       .     A
C20   O49    1.22040       .     D
C21   H10    1.08415       .     S
C21   C26    1.50214       .     S
C21   O54    1.22008       .     D
C22   H11    1.08434       .     S
C22   C27    1.50092   1_545     S
C22   O55    1.22003       .     A
C23   C16    1.41157       .     D
C23   C25    1.39932       .     S
C23   O52    1.38430       .     A
C24   C35    1.41973       .     S
C24   C38    1.39961       .     S
C24   O44    1.38393       .     S
C25   C23    1.39932       .     S
C25   C36    1.41987   1_655     S
C25   O45    1.38386   1_655     S
C26   C21    1.50214       .     S
C26   C30    1.41285       .     S
C26   C33    1.41168       .     S
C27   C22    1.50092   1_565     A
C27   C31    1.41232       .     A
C27   C32    1.41101       .     D
C28   C30    1.45786   1_556     A
C28   O42    1.26495       .     S
C28   O48    1.27079       .     S
O29   C17    1.22105   1_564     D
C30   C26    1.41285       .     S
C30   C28    1.45786   1_554     A
C30   C32    1.41357       .     S
C31   C27    1.41232       .     D
C31   C33    1.41355       .     S
C31   C34    1.45752       .     S
C32   C27    1.41101       .     S
C32   C30    1.41357       .     D
C32   C40    1.49500   1_565     D
C33   C14    1.49527       .     S
C33   C26    1.41168       .     A
C33   C31    1.41355       .     A
C34   C31    1.45752       .     A
C34   O41    1.27051       .     A
C34   O43    1.26522       .     A
C35   C17    1.48814   1_455     A
C35   C24    1.41973       .     A
C35   C37    1.41969   1_546     S
C36   C18    1.48813       .     S
C36   C25    1.41987   1_455     A
C36   C39    1.41976   1_455     S
C37   C19    1.49335       .     S
C37   C35    1.41969   1_564     S
C37   C40    1.42224   1_565     A
C38   C15    1.41173   1_556     A
C38   C24    1.39961       .     S
C38   O53    1.38408       .     A
C39   C14    1.42216       .     S
C39   C20    1.49338       .     S
C39   C36    1.41976   1_655     A
C40   C15    1.42092       .     D
C40   C32    1.49500   1_545     S
C40   C37    1.42224   1_545     S
O41   Cu1    5.91317       .     D
O41   C34    1.27051       .     S
O42   Cu1    5.46247       .     S
O42   C28    1.26495       .     A
O43   Cu0    5.53331       .     D
O43   C34    1.26522       .     S
O44   H2     0.98747   1_455     A
O44   C24    1.38393       .     S
O45   H12    0.98738       .     S
O45   C25    1.38386   1_455     S
O46   C18    1.22126       .     S
O47   C19    1.22040       .     S
O48   Cu0    5.85573       .     D
O48   C28    1.27079       .     S
O49   C20    1.22040       .     S
O50   H6     0.98764       .     D
O50   C15    1.38585       .     S
O51   H7     0.98766       .     T
O51   C16    1.38581       .     S
O52   H8     0.98929       .     D
O52   C23    1.38430       .     S
O53   H9     0.98940       .     S
O53   C38    1.38408       .     D
O54   C21    1.22008       .     S
O55   C22    1.22003       .     T
C56   C58    1.41243       .     T
C56   O60    1.27855       .     T
C56   O63    1.27305       .     S
C57   C59    1.41242       .     S
C57   O61    1.27855       .     S
C57   O62    1.27306       .     S
C58   C56    1.41243       .     S
C58   C59    1.19233       .     S
C59   C57    1.41242       .     S
C59   C58    1.19233       .     S
O60   Cu1    1.87393       .     S
O60   C56    1.27855       .     S
O61   Cu0    1.93242   1_545     S
O61   C57    1.27855       .     S
O62   Cu1    2.05275   1_545     S
O62   C57    1.27306       .     S
O63   Cu0    1.98608       .     S
O63   C56    1.27305       .     S
N64   Cu0    1.94092       .     S
N64   N65    1.19179   1_655     S
N65   Cu1    1.96863       .     S
N65   N64    1.19179   1_455     S
