# generated using pymatgen
data_CuH6C15NO10
_symmetry_space_group_name_H-M   'P 1'
_cell_length_a   7.68164000
_cell_length_b   9.09222000
_cell_length_c   18.29678000
_cell_angle_alpha   92.67198000
_cell_angle_beta   90.50841000
_cell_angle_gamma   94.63037000
_symmetry_Int_Tables_number   1
_chemical_formula_structural   CuH6C15NO10
_chemical_formula_sum   'Cu2 H12 C30 N2 O20'
_cell_volume   1272.24686457
_cell_formula_units_Z   2
loop_
 _symmetry_equiv_pos_site_id
 _symmetry_equiv_pos_as_xyz
  1  'x, y, z'
loop_
 _atom_site_type_symbol
 _atom_site_label
 _atom_site_symmetry_multiplicity
 _atom_site_fract_x
 _atom_site_fract_y
 _atom_site_fract_z
 _atom_site_occupancy
  Cu  Cu0  1  0.70755845  0.90195245  0.63496230  1
  Cu  Cu1  1  0.36384463  0.85487470  0.64773196  1
  H  H2  1  0.88524920  0.28493142  0.92661774  1
  H  H3  1  0.25188340  0.71691790  0.36846930  1
  H  H4  1  0.98766270  0.77829630  0.00823473  1
  H  H5  1  0.07383263  0.98037550  0.26850367  1
  H  H6  1  0.59690124  0.19588340  0.08774263  1
  H  H7  1  0.45875020  0.56562540  0.19341873  1
  H  H8  1  0.59521985  0.32677108  0.30607077  1
  H  H9  1  0.45915340  0.43744110  0.97685754  1
  H  H10  1  0.73895365  0.65899380  0.00521050  1
  H  H11  1  0.32051837  0.10449612  0.27342165  1
  H  H12  1  0.17182470  0.47513923  0.35286412  1
  H  H13  1  0.80835605  0.04313290  0.90915686  1
  C  C14  1  0.74810930  0.70559720  0.22589612  1
  C  C15  1  0.37769580  0.19500530  0.03100099  1
  C  C16  1  0.67841214  0.56673490  0.24983800  1
  C  C17  1  0.85520230  0.02660477  0.96394930  1
  C  C18  1  0.20408773  0.73201080  0.31365220  1
  C  C19  1  0.07172656  0.84397650  0.04739948  1
  C  C20  1  0.98787180  0.91460950  0.23007700  1
  C  C21  1  0.75769705  0.68300870  0.06347501  1
  C  C22  1  0.29706398  0.07517362  0.21585122  1
  C  C23  1  0.78028990  0.48575610  0.29553800  1
  C  C24  1  0.10534699  0.22312927  0.96516170  1
  C  C25  1  0.95173013  0.53785115  0.31477445  1
  C  C26  1  0.64580405  0.78729340  0.10366783  1
  C  C27  1  0.41078490  0.97240210  0.17579222  1
  C  C28  1  0.55384490  0.87664640  0.98429793  1
  C  C29  1  0.53939694  0.87545060  0.06366537  1
  C  C30  1  0.51818480  0.88523984  0.21584278  1
  C  C31  1  0.41967198  0.96469090  0.09872931  1
  C  C32  1  0.63747156  0.79557705  0.18077907  1
  C  C33  1  0.50391770  0.88459400  0.29521027  1
  C  C34  1  0.03544136  0.08296347  0.98715776  1
  C  C35  1  0.02272701  0.67677170  0.29156694  1
  C  C36  1  0.13880168  0.99730605  0.03061354  1
  C  C37  1  0.27579215  0.27635336  0.98547620  1
  C  C38  1  0.91943270  0.76226780  0.24799035  1
  C  C39  1  0.30903184  0.05491877  0.05377240  1
  C  C40  1  0.51188064  0.60003710  0.64467824  1
  C  C41  1  0.56222403  0.16324285  0.63580210  1
  C  C42  1  0.52886390  0.44635236  0.64155000  1
  C  C43  1  0.54527110  0.31693184  0.63893074  1
  N  N44  1  0.95739040  0.88382906  0.63968550  1
  N  N45  1  0.11180459  0.87782145  0.63993686  1
  O  O46  1  0.75549185  0.96493894  0.00656279  1
  O  O47  1  0.36060650  0.84056130  0.32428128  1
  O  O48  1  0.42251712  0.83237296  0.94465446  1
  O  O49  1  0.63527350  0.92891276  0.33485532  1
  O  O50  1  0.01156849  0.31430662  0.92410886  1
  O  O51  1  0.04537094  0.44688874  0.35600367  1
  O  O52  1  0.30351520  0.79106420  0.27008778  1
  O  O53  1  0.10613699  0.79012010  0.10512571  1
  O  O54  1  0.69718385  0.92072463  0.95522845  1
  O  O55  1  0.95256406  0.96743894  0.17219141  1
  O  O56  1  0.54322976  0.25584817  0.05136826  1
  O  O57  1  0.51190645  0.50679190  0.23042506  1
  O  O58  1  0.71837190  0.35101497  0.32146720  1
  O  O59  1  0.33665380  0.41235626  0.96071017  1
  O  O60  1  0.87184274  0.62195414  0.09404162  1
  O  O61  1  0.17558908  0.12809956  0.18600507  1
  O  O62  1  0.36011610  0.64834330  0.64461046  1
  O  O63  1  0.71398850  0.11493655  0.63587000  1
  O  O64  1  0.42430648  0.07546706  0.63295580  1
  O  O65  1  0.64979815  0.68781275  0.64752454  1
