# generated using pymatgen
data_CuH6C15NO10
_symmetry_space_group_name_H-M   'P 1'
_cell_length_a   7.68164000
_cell_length_b   9.09222000
_cell_length_c   18.29678000
_cell_angle_alpha   92.67198000
_cell_angle_beta   90.50841000
_cell_angle_gamma   94.63037000
_symmetry_Int_Tables_number   1
_chemical_formula_structural   CuH6C15NO10
_chemical_formula_sum   'Cu2 H12 C30 N2 O20'
_cell_volume   1272.24686457
_cell_formula_units_Z   2
loop_
 _symmetry_equiv_pos_site_id
 _symmetry_equiv_pos_as_xyz
  1  'x, y, z'
loop_
 _atom_site_type_symbol
 _atom_site_label
 _atom_site_symmetry_multiplicity
 _atom_site_fract_x
 _atom_site_fract_y
 _atom_site_fract_z
 _atom_site_occupancy
  Cu  Cu0  1  0.70755535  0.90194710  0.63495330  1
  Cu  Cu1  1  0.36384434  0.85488147  0.64773970  1
  H  H2  1  0.88565790  0.28526306  0.92656970  1
  H  H3  1  0.25165750  0.71655613  0.36850460  1
  H  H4  1  0.98763900  0.77856624  0.00822342  1
  H  H5  1  0.07385182  0.98010220  0.26851556  1
  H  H6  1  0.59716210  0.19584560  0.08772416  1
  H  H7  1  0.45848638  0.56566440  0.19343744  1
  H  H8  1  0.59473010  0.32675010  0.30611000  1
  H  H9  1  0.45964202  0.43746470  0.97681840  1
  H  H10  1  0.73879385  0.65882670  0.00523117  1
  H  H11  1  0.32067728  0.10466158  0.27340110  1
  H  H12  1  0.17141187  0.47480756  0.35291252  1
  H  H13  1  0.80857843  0.04349208  0.90912200  1
  C  C14  1  0.74793476  0.70548576  0.22591522  1
  C  C15  1  0.37798116  0.19507813  0.03097523  1
  C  C16  1  0.67812400  0.56666300  0.24986390  1
  C  C17  1  0.85539603  0.02695095  0.96391726  1
  C  C18  1  0.20388925  0.73166270  0.31368473  1
  C  C19  1  0.07174197  0.84421190  0.04738685  1
  C  C20  1  0.98785174  0.91437190  0.23009019  1
  C  C21  1  0.75754200  0.68284750  0.06349501  1
  C  C22  1  0.29721385  0.07533586  0.21583161  1
  C  C23  1  0.77992050  0.48563400  0.29557280  1
  C  C24  1  0.10568510  0.22334194  0.96512500  1
  C  C25  1  0.95138890  0.53763855  0.31481150  1
  C  C26  1  0.64572950  0.78721200  0.10367769  1
  C  C27  1  0.41085547  0.97248360  0.17578274  1
  C  C28  1  0.55387527  0.87659040  0.98429840  1
  C  C29  1  0.53940850  0.87542390  0.06366577  1
  C  C30  1  0.51816976  0.88526607  0.21584271  1
  C  C31  1  0.41975364  0.96474650  0.09872032  1
  C  C32  1  0.63738600  0.79552144  0.18078853  1
  C  C33  1  0.50388455  0.88464946  0.29521012  1
  C  C34  1  0.03566524  0.08321512  0.98712810  1
  C  C35  1  0.02249920  0.67651886  0.29159707  1
  C  C36  1  0.13894083  0.99750600  0.03059300  1
  C  C37  1  0.27615902  0.27647638  0.98544170  1
  C  C38  1  0.91928923  0.76206684  0.24801132  1
  C  C39  1  0.30920264  0.05503011  0.05375374  1
  C  C40  1  0.51187795  0.60003610  0.64468220  1
  C  C41  1  0.56222165  0.16324179  0.63579720  1
  C  C42  1  0.52886130  0.44635126  0.64155084  1
  C  C43  1  0.54526854  0.31693070  0.63892900  1
  N  N44  1  0.95738700  0.88380980  0.63968180  1
  N  N45  1  0.11180700  0.87784076  0.63994210  1
  O  O46  1  0.75563130  0.96535050  0.00653184  1
  O  O47  1  0.36053875  0.84070444  0.32427958  1
  O  O48  1  0.42252815  0.83237960  0.94465340  1
  O  O49  1  0.63525940  0.92890580  0.33485675  1
  O  O50  1  0.01199482  0.31456650  0.92406290  1
  O  O51  1  0.04494166  0.44662890  0.35604980  1
  O  O52  1  0.30336916  0.79065040  0.27011943  1
  O  O53  1  0.10609353  0.79034860  0.10511807  1
  O  O54  1  0.69724876  0.92058090  0.95523050  1
  O  O55  1  0.95260197  0.96720874  0.17219977  1
  O  O56  1  0.54355030  0.25583446  0.05134397  1
  O  O57  1  0.51158360  0.50680730  0.23044954  1
  O  O58  1  0.71789110  0.35092878  0.32150885  1
  O  O59  1  0.33713272  0.41244435  0.96066850  1
  O  O60  1  0.87162510  0.62173280  0.09406946  1
  O  O61  1  0.17579499  0.12832618  0.18597807  1
  O  O62  1  0.36011338  0.64834220  0.64461607  1
  O  O63  1  0.71398610  0.11493547  0.63586340  1
  O  O64  1  0.42430404  0.07546596  0.63294977  1
  O  O65  1  0.64979540  0.68781173  0.64752966  1
