# generated using pymatgen
data_CuHC11N2O7
_symmetry_space_group_name_H-M   'P 1'
_cell_length_a   9.38748000
_cell_length_b   9.82095000
_cell_length_c   14.82406000
_cell_angle_alpha   93.82568000
_cell_angle_beta   107.36287000
_cell_angle_gamma   92.96561000
_symmetry_Int_Tables_number   1
_chemical_formula_structural   CuHC11N2O7
_chemical_formula_sum   'Cu2 H2 C22 N4 O14'
_cell_volume   1297.81886006
_cell_formula_units_Z   2
loop_
 _symmetry_equiv_pos_site_id
 _symmetry_equiv_pos_as_xyz
  1  'x, y, z'
loop_
 _atom_site_type_symbol
 _atom_site_label
 _atom_site_symmetry_multiplicity
 _atom_site_fract_x
 _atom_site_fract_y
 _atom_site_fract_z
 _atom_site_occupancy
  Cu  Cu0  1  0.41706038  0.81934930  0.51371540  1
  Cu  Cu1  1  0.59873870  0.05402219  0.54804870  1
  H  H2  1  0.13058248  0.51261910  0.41099125  1
  H  H3  1  0.87968457  0.36507112  0.64536240  1
  C  C4  1  0.71012460  0.01094842  0.77005476  1
  C  C5  1  0.64203644  0.98517230  0.84801950  1
  C  C6  1  0.58966560  0.96619250  0.91470194  1
  C  C7  1  0.52968186  0.94493264  0.99489653  1
  C  C8  1  0.47956300  0.92730194  0.06270559  1
  C  C9  1  0.41957918  0.90604204  0.14290020  1
  C  C10  1  0.36724567  0.88701326  0.20958455  1
  C  C11  1  0.29919040  0.86118300  0.28754792  1
  C  C12  1  0.37755600  0.50453365  0.47821942  1
  C  C13  1  0.63272830  0.37315726  0.57812625  1
  C  C14  1  0.50887996  0.58568680  0.53261790  1
  C  C15  1  0.50138575  0.29200345  0.52371377  1
  C  C16  1  0.63561570  0.51899487  0.58218780  1
  C  C17  1  0.37465070  0.35869512  0.47415490  1
  C  C18  1  0.51335835  0.73736584  0.54212624  1
  C  C19  1  0.49690804  0.14032432  0.51421640  1
  C  C20  1  0.23888709  0.56916595  0.42764285  1
  C  C21  1  0.77137930  0.30852422  0.62869984  1
  C  C22  1  0.22524749  0.91108316  0.56758980  1
  C  C23  1  0.07146092  0.93055105  0.54036456  1
  C  C24  1  0.94139030  0.94689470  0.51732060  1
  C  C25  1  0.78760010  0.96638360  0.49017380  1
  N  N26  1  0.49327000  0.02056570  0.50709707  1
  N  N27  1  0.51699640  0.85712430  0.54924566  1
  N  N28  1  0.24307992  0.27738708  0.41676465  1
  N  N29  1  0.76720430  0.60030377  0.63958110  1
  O  O30  1  0.65349790  0.94480467  0.68548240  1
  O  O31  1  0.82476640  0.10116780  0.78913015  1
  O  O32  1  0.18461247  0.77088630  0.26848465  1
  O  O33  1  0.35579675  0.92733770  0.37212232  1
  O  O34  1  0.17905760  0.18491400  0.45375326  1
  O  O35  1  0.19150364  0.29087716  0.32630172  1
  O  O36  1  0.83122660  0.69277686  0.60259247  1
  O  O37  1  0.81874615  0.58682734  0.73004967  1
  O  O38  1  0.24326510  0.68465590  0.40229440  1
  O  O39  1  0.76701710  0.19303502  0.65401846  1
  O  O40  1  0.26722830  0.79016060  0.57712860  1
  O  O41  1  0.74562690  0.08732688  0.48077330  1
  O  O42  1  0.69374600  0.86274410  0.47590010  1
  O  O43  1  0.31910930  0.01474345  0.58200175  1
