# CIF file from MOFDiff structure generation
# Relaxed using LAMMPS UFF force field
# Generation date: 2025-12-26 06:08:15
# Note: Computationally generated structure
#
# generated using pymatgen
data_Cu3H30C38(NO3)4
_chemical_name_common   'Copper-based MOF (computationally generated)'
_chemical_name_systematic   ?
_audit_creation_method   'MOFDiff + LAMMPS UFF relaxation'
_chemical_name_systematic   ?
_audit_creation_method   'MOFDiff + LAMMPS UFF relaxation'
_chemical_name_systematic   ?
_audit_creation_method   'MOFDiff + LAMMPS UFF relaxation'
_chemical_name_systematic   ?
_audit_creation_method   'MOFDiff + LAMMPS UFF relaxation'
_chemical_name_systematic   ?
_audit_creation_method   'MOFDiff + LAMMPS UFF relaxation'
_symmetry_space_group_name_H-M   'P 1'
_cell_length_a   33.98453738
_cell_length_b   34.08967419
_cell_length_c   41.49097917
_cell_angle_alpha   93.87876179
_cell_angle_beta   93.74780906
_cell_angle_gamma   73.59907478
_symmetry_Int_Tables_number   1
_chemical_formula_structural   Cu3H30C38(NO3)4
_chemical_formula_sum   'Cu48 H480 C608 N64 O192'
_cell_volume   45952.87707302
_cell_formula_units_Z   16
loop_
 _symmetry_equiv_pos_site_id
 _symmetry_equiv_pos_as_xyz
  1  'x, y, z'
loop_
 _atom_site_type_symbol
 _atom_site_label
 _atom_site_symmetry_multiplicity
 _atom_site_fract_x
 _atom_site_fract_y
 _atom_site_fract_z
 _atom_site_occupancy
 _atom_site_U_iso_or_equiv
  H  H0  1  0.14279800  0.03161190  0.14183700  1
  H  H1  1  0.09438600  0.13562800  0.04800990  1
  H  H2  1  0.09453080  0.13583200  0.04933340  1
  N  N3  1  0.09363180  0.12756000  0.02497600  1
  C  C4  1  0.20578500  0.02337790  0.15823200  1
  C  C5  1  0.16300500  0.04002030  0.16031500  1
  H  H6  1  0.64279700  0.03161250  0.14183800  1
  C  C7  1  0.66300400  0.04002110  0.16031600  1
  C  C8  1  0.70578400  0.02337920  0.15823300  1
  H  H9  1  0.59440400  0.13558900  0.04801570  1
  H  H10  1  0.59451900  0.13586300  0.04932740  1
  N  N11  1  0.59363400  0.12755600  0.02497590  1
  H  H12  1  0.00829947  0.25407100  0.05544750  1
  H  H13  1  0.01283570  0.27255800  0.11078600  1
  C  C14  1  0.06527880  0.19818400  0.01253800  1
  C  C15  1  0.07898600  0.15520200  0.00230190  1
  C  C16  1  0.03547570  0.24205600  0.06608630  1
  C  C17  1  0.03881450  0.25063900  0.09980980  1
  C  C18  1  0.06958560  0.21638700  0.04903050  1
  C  C19  1  0.07473310  0.23152800  0.11839100  1
  C  C20  1  0.07644090  0.23340900  0.15242900  1
  H  H21  1  0.13735500  0.19359300  0.05825890  1
  H  H22  1  0.14116800  0.21059500  0.11447500  1
  C  C23  1  0.11078400  0.21583600  0.10183200  1
  C  C24  1  0.10809700  0.20756700  0.06817480  1
  H  H25  1  0.50829900  0.25407200  0.05544690  1
  H  H26  1  0.51283300  0.27255900  0.11078600  1
  C  C27  1  0.53547500  0.24205700  0.06608630  1
  C  C28  1  0.56527900  0.19818300  0.01253890  1
  C  C29  1  0.57898700  0.15520100  0.00230282  1
  C  C30  1  0.53881300  0.25064200  0.09981030  1
  C  C31  1  0.61078200  0.21583600  0.10183300  1
  C  C32  1  0.60809600  0.20756600  0.06817540  1
  C  C33  1  0.56958500  0.21638700  0.04903110  1
  C  C34  1  0.57473100  0.23153000  0.11839200  1
  C  C35  1  0.57644100  0.23340500  0.15243000  1
  H  H36  1  0.63735400  0.19359200  0.05825860  1
  H  H37  1  0.64116600  0.21059400  0.11447500  1
  H  H38  1  0.20728600  0.47365800  0.12483400  1
  N  N39  1  0.22407000  0.49039600  0.13862400  1
  H  H40  1  0.14279700  0.53161200  0.14183800  1
  C  C41  1  0.20578400  0.52337800  0.15823300  1
  C  C42  1  0.16300400  0.54002100  0.16031600  1
  H  H43  1  0.25330700  0.47925400  0.13906800  1
  H  H44  1  0.64279800  0.53161200  0.14183700  1
  C  C45  1  0.66300600  0.54002000  0.16031500  1
  H  H46  1  0.70728600  0.47365700  0.12483300  1
  N  N47  1  0.72407000  0.49039500  0.13862300  1
  C  C48  1  0.70578600  0.52337700  0.15823300  1
  H  H49  1  0.75330700  0.47925200  0.13906700  1
  H  H50  1  0.00829980  0.75407000  0.05544720  1
  H  H51  1  0.01283440  0.77255900  0.11078600  1
  C  C52  1  0.03547590  0.74205600  0.06608640  1
  C  C53  1  0.03881380  0.75064100  0.09981070  1
  H  H54  1  0.13735500  0.69359300  0.05825940  1
  H  H55  1  0.14116700  0.71059400  0.11447600  1
  H  H56  1  0.09425970  0.63594800  0.04795870  1
  H  H57  1  0.09467400  0.63550900  0.04938930  1
  C  C58  1  0.06528530  0.69818600  0.01253510  1
  C  C59  1  0.07898880  0.65520600  0.00229934  1
  C  C60  1  0.11078300  0.71583600  0.10183300  1
  C  C61  1  0.10809700  0.70756700  0.06817590  1
  C  C62  1  0.06958670  0.71638800  0.04903020  1
  C  C63  1  0.07473230  0.73153000  0.11839300  1
  N  N64  1  0.09359760  0.62757000  0.02497960  1
  C  C65  1  0.07644150  0.73340500  0.15243100  1
  H  H66  1  0.50830000  0.75407000  0.05544720  1
  H  H67  1  0.59437100  0.63566400  0.04800530  1
  H  H68  1  0.59454100  0.63581000  0.04933850  1
  C  C69  1  0.56528000  0.69818500  0.01253770  1
  C  C70  1  0.57898200  0.65520300  0.00230206  1
  C  C71  1  0.53547600  0.74205600  0.06608660  1
  C  C72  1  0.53881400  0.75064000  0.09981050  1
  C  C73  1  0.61078300  0.71583600  0.10183300  1
  C  C74  1  0.60809800  0.70756700  0.06817580  1
  C  C75  1  0.56958600  0.71638800  0.04903080  1
  C  C76  1  0.57473200  0.73152900  0.11839200  1
  N  N77  1  0.59362100  0.62756300  0.02497750  1
  H  H78  1  0.51283500  0.77255800  0.11078600  1
  C  C79  1  0.57644000  0.73340500  0.15242900  1
  H  H80  1  0.63735600  0.69359300  0.05825990  1
  H  H81  1  0.64116700  0.71059500  0.11447600  1
  H  H82  1  0.20728600  0.97365700  0.12483300  1
  H  H83  1  0.25330700  0.97925400  0.13906700  1
  N  N84  1  0.22407000  0.99039600  0.13862300  1
  H  H85  1  0.70728700  0.97365800  0.12483400  1
  H  H86  1  0.75330700  0.97925500  0.13906800  1
  N  N87  1  0.72407000  0.99039700  0.13862400  1
  H  H88  1  0.01077500  0.05925570  0.24787800  1
  H  H89  1  0.05711640  0.08506970  0.26748500  1
  C  C90  1  0.03122480  0.11167600  0.26191300  1
  H  H91  1  0.01704490  0.03101680  0.31458300  1
  O  O92  1  0.03591510  0.10853200  0.32168700  1
  C  C93  1  0.00276239  0.09721800  0.32066100  1
  Cu  Cu94  1  0.03921120  0.13296200  0.32489900  1
  C  C95  1  0.00180496  0.09107770  0.25107600  1
  H  H96  1  0.11340300  0.08321430  0.18468300  1
  C  C97  1  0.11432300  0.11555400  0.25299400  1
  O  O98  1  0.10250500  0.11079100  0.28562200  1
  O  O99  1  0.08601800  0.13970200  0.23300200  1
  C  C100  1  0.02268690  0.15591600  0.27390900  1
  H  H101  1  0.26246500  0.03163390  0.17180900  1
  C  C102  1  0.24589800  0.07559380  0.22505600  1
  C  C103  1  0.21610900  0.06593870  0.20427800  1
  C  C104  1  0.17296600  0.07906250  0.21082100  1
  C  C105  1  0.15975300  0.10398100  0.24037400  1
  C  C106  1  0.23054900  0.04081870  0.17744400  1
  C  C107  1  0.14636100  0.06869920  0.18582500  1
  C  C108  1  0.26417600  0.10621800  0.27460400  1
  C  C109  1  0.23415100  0.09832550  0.25244300  1
  C  C110  1  0.19203400  0.12008600  0.25545200  1
  C  C111  1  0.25187700  0.13924800  0.29624500  1
  H  H112  1  0.29488600  0.08995360  0.27399900  1
  C  C113  1  0.28818400  0.06824180  0.21489200  1
  O  O114  1  0.31414100  0.03168470  0.21546900  1
  O  O115  1  0.31425600  0.03168240  0.21537300  1
  H  H116  1  0.32930100  0.07224490  0.32115300  1
  C  C117  1  0.36251400  0.01405960  0.28127800  1
  C  C118  1  0.38301000  0.04007920  0.29992200  1
  N  N119  1  0.36080500  0.06915400  0.32307700  1
  O  O120  1  0.32367600  0.01565380  0.28324300  1
  H  H121  1  0.27291200  0.14468200  0.31322900  1
  C  C122  1  0.18868700  0.16150700  0.26394000  1
  H  H123  1  0.43894100  0.09580830  0.24521400  1
  C  C124  1  0.46030700  0.11157800  0.24994600  1
  H  H125  1  0.42855000  0.08681080  0.33091900  1
  H  H126  1  0.47491500  0.01435870  0.26819600  1
  H  H127  1  0.42718200  0.02973750  0.24895700  1
  C  C128  1  0.42540900  0.03858940  0.29587800  1
  C  C129  1  0.49333500  0.06068300  0.31648800  1
  C  C130  1  0.44725700  0.06267290  0.31561300  1
  N  N131  1  0.44428500  0.01522120  0.26875100  1
  O  O132  1  0.47541300  0.12912900  0.31901000  1
  H  H133  1  0.51704400  0.03101680  0.31458300  1
  C  C134  1  0.50180500  0.09107720  0.25107500  1
  H  H135  1  0.51077500  0.05925550  0.24787800  1
  H  H136  1  0.55711700  0.08507050  0.26748500  1
  C  C137  1  0.53122600  0.11167500  0.26191100  1
  C  C138  1  0.50276200  0.09721770  0.32066100  1
  O  O139  1  0.53591500  0.10853100  0.32168700  1
  Cu  Cu140  1  0.53921300  0.13296100  0.32490000  1
  C  C141  1  0.44765100  0.15260400  0.25908900  1
  C  C142  1  0.52268300  0.15591100  0.27391000  1
  H  H143  1  0.61340300  0.08321570  0.18468500  1
  C  C144  1  0.67297000  0.07905990  0.21082300  1
  C  C145  1  0.65976400  0.10397100  0.24037900  1
  C  C146  1  0.64636200  0.06869990  0.18582700  1
  C  C147  1  0.61434600  0.11554300  0.25300500  1
  O  O148  1  0.60251500  0.11078200  0.28562900  1
  O  O149  1  0.58605700  0.13972300  0.23303400  1
  C  C150  1  0.69203500  0.12008800  0.25544900  1
  H  H151  1  0.79488600  0.08995440  0.27399900  1
  H  H152  1  0.76246200  0.03164050  0.17180400  1
  C  C153  1  0.74590000  0.07559220  0.22505800  1
  C  C154  1  0.71611000  0.06593820  0.20427800  1
  C  C155  1  0.73054800  0.04082140  0.17744300  1
  C  C156  1  0.78818600  0.06823570  0.21489300  1
  C  C157  1  0.76417600  0.10621900  0.27460400  1
  C  C158  1  0.73415300  0.09832760  0.25244300  1
  O  O159  1  0.81428200  0.03168120  0.21533200  1
  O  O160  1  0.81410400  0.03166420  0.21549400  1
  H  H161  1  0.82930100  0.07224590  0.32115400  1
  O  O162  1  0.82367400  0.01566050  0.28323900  1
  H  H163  1  0.77291400  0.14468000  0.31322900  1
  C  C164  1  0.75187900  0.13924900  0.29624400  1
  C  C165  1  0.68867700  0.16151000  0.26393900  1
  C  C166  1  0.86251300  0.01406380  0.28127600  1
  C  C167  1  0.88301000  0.04008170  0.29992000  1
  C  C168  1  0.92540900  0.03859030  0.29587700  1
  N  N169  1  0.86080600  0.06915520  0.32307700  1
  H  H170  1  0.92855000  0.08681100  0.33091900  1
  H  H171  1  0.92718300  0.02973760  0.24895700  1
  N  N172  1  0.94428600  0.01522160  0.26875100  1
  H  H173  1  0.93894100  0.09580850  0.24521300  1
  C  C174  1  0.96030700  0.11157900  0.24994600  1
  H  H175  1  0.97491600  0.01435890  0.26819600  1
  C  C176  1  0.99333600  0.06068300  0.31648900  1
  C  C177  1  0.94725800  0.06267290  0.31561300  1
  O  O178  1  0.97541300  0.12912900  0.31900900  1
  C  C179  1  0.94765200  0.15260500  0.25908900  1
  C  C180  1  0.00723639  0.24395200  0.25436900  1
  Cu  Cu181  1  0.01688730  0.17700100  0.32554200  1
  O  O182  1  0.02176760  0.21419100  0.23258100  1
  O  O183  1  0.08355860  0.26622300  0.16747000  1
  C  C184  1  0.04668560  0.21955800  0.32601800  1
  C  C185  1  0.05968870  0.18357300  0.29591000  1
  O  O186  1  0.07393120  0.20121800  0.16854400  1
  Cu  Cu187  1  0.07552830  0.19675400  0.21412900  1
  H  H188  1  0.07401750  0.17868500  0.28822800  1
  C  C189  1  0.09880820  0.18491200  0.28562600  1
  C  C190  1  0.09993330  0.24560100  0.31836000  1
  C  C191  1  0.06528060  0.24925100  0.33291200  1
  C  C192  1  0.04484690  0.32071600  0.27726800  1
  C  C193  1  0.01736280  0.32091300  0.24797300  1
  H  H194  1  0.03873180  0.30059000  0.29291600  1
  H  H195  1  0.07545070  0.31283200  0.26913900  1
  H  H196  1  0.04358480  0.35110600  0.28912000  1
  H  H197  1  0.03960750  0.31215300  0.22877700  1
  H  H198  1  0.00824646  0.27488200  0.19166400  1
  H  H199  1  0.18830200  0.21492600  0.24404600  1
  H  H200  1  0.18863600  0.21644400  0.24457600  1
  H  H201  1  0.19730600  0.23347300  0.29461100  1
  H  H202  1  0.19771100  0.20504400  0.32778800  1
  C  C203  1  0.21403300  0.16850200  0.29013600  1
  N  N204  1  0.18398000  0.18745100  0.23996000  1
  N  N205  1  0.20695000  0.20545600  0.30524000  1
  Cu  Cu206  1  0.11106900  0.26318100  0.20813900  1
  H  H207  1  0.17701300  0.33098300  0.30781200  1
  H  H208  1  0.13188300  0.29568100  0.28834900  1
  C  C209  1  0.11003800  0.24052900  0.26664500  1
  C  C210  1  0.10860500  0.22010600  0.29155700  1
  C  C211  1  0.16861000  0.31267000  0.32340700  1
  C  C212  1  0.13829300  0.29557300  0.31278400  1
  C  C213  1  0.12696600  0.26951000  0.33095600  1
  O  O214  1  0.10652900  0.22723200  0.23739100  1
  O  O215  1  0.10647900  0.22704300  0.23698000  1
  C  C216  1  0.18935200  0.32328000  0.21920100  1
  C  C217  1  0.15917400  0.29896900  0.21650200  1
  O  O218  1  0.16659200  0.26144800  0.20197500  1
  O  O219  1  0.12128600  0.31343300  0.22715900  1
  C  C220  1  0.21404100  0.34393300  0.22140900  1
  C  C221  1  0.24256300  0.36908500  0.22458900  1
  H  H222  1  0.45641300  0.20068600  0.28210400  1
  H  H223  1  0.41464700  0.16820700  0.26074100  1
  H  H224  1  0.40115000  0.34603700  0.22224900  1
  C  C225  1  0.47649700  0.17269700  0.27127500  1
  C  C226  1  0.48033600  0.29353700  0.20347800  1
  C  C227  1  0.42648100  0.34909800  0.24001300  1
  C  C228  1  0.45061600  0.30778400  0.25329600  1
  H  H229  1  0.45531000  0.31327300  0.27877400  1
  H  H230  1  0.43285800  0.28926400  0.24780100  1
  H  H231  1  0.45537700  0.28015500  0.19413800  1
  O  O232  1  0.49873900  0.23292500  0.28438400  1
  H  H233  1  0.57400300  0.17868200  0.28824100  1
  C  C234  1  0.54668300  0.21955700  0.32602000  1
  C  C235  1  0.55968700  0.18356000  0.29591400  1
  C  C236  1  0.51736600  0.32090900  0.24797200  1
  C  C237  1  0.48940600  0.29002600  0.24129600  1
  C  C238  1  0.50726700  0.24394200  0.25436400  1
  H  H239  1  0.53873400  0.30058000  0.29291500  1
  H  H240  1  0.50824600  0.27488200  0.19166400  1
  O  O241  1  0.52186000  0.21416800  0.23258700  1
  C  C242  1  0.46812700  0.33636600  0.19458200  1
  H  H243  1  0.49223000  0.34217000  0.18603100  1
  H  H244  1  0.44241700  0.34321000  0.17635100  1
  Cu  Cu245  1  0.51688400  0.17700000  0.32554200  1
  C  C246  1  0.45530600  0.36758400  0.22375300  1
  H  H247  1  0.41055800  0.36937500  0.25954900  1
  C  C248  1  0.49095400  0.36644900  0.24418800  1
  O  O249  1  0.58355500  0.26622100  0.16746800  1
  O  O250  1  0.57397400  0.20119500  0.16854300  1
  Cu  Cu251  1  0.61109300  0.26316300  0.20810400  1
  Cu  Cu252  1  0.57559800  0.19671100  0.21412300  1
  H  H253  1  0.63188600  0.29572700  0.28836100  1
  C  C254  1  0.61042300  0.24041300  0.26667100  1
  C  C255  1  0.59874200  0.18495000  0.28555800  1
  C  C256  1  0.60858700  0.22010500  0.29154200  1
  C  C257  1  0.59993900  0.24558900  0.31835600  1
  C  C258  1  0.56528500  0.24924400  0.33291100  1
  C  C259  1  0.63829300  0.29558500  0.31279200  1
  C  C260  1  0.62696900  0.26950700  0.33095400  1
  O  O261  1  0.60629300  0.22751100  0.23737800  1
  O  O262  1  0.60617600  0.22723900  0.23699900  1
  C  C263  1  0.54486200  0.32069300  0.27726300  1
  H  H264  1  0.57546800  0.31275800  0.26913600  1
  H  H265  1  0.54359700  0.35108900  0.28911300  1
  H  H266  1  0.53960700  0.31215400  0.22877500  1
  O  O267  1  0.62128000  0.31337700  0.22716100  1
  H  H268  1  0.68827400  0.21493000  0.24403200  1
  H  H269  1  0.68862200  0.21644000  0.24458200  1
  H  H270  1  0.69770700  0.20503900  0.32778600  1
  N  N271  1  0.68385200  0.18749300  0.23997000  1
  H  H272  1  0.69731100  0.23347500  0.29461500  1
  C  C273  1  0.71404300  0.16851000  0.29012600  1
  N  N274  1  0.70695500  0.20545700  0.30524000  1
  H  H275  1  0.67701400  0.33098300  0.30781200  1
  C  C276  1  0.66861300  0.31267200  0.32341000  1
  C  C277  1  0.68933800  0.32327000  0.21920400  1
  C  C278  1  0.71402600  0.34393100  0.22140700  1
  C  C279  1  0.65917500  0.29892900  0.21651300  1
  O  O280  1  0.66662400  0.26139400  0.20200200  1
  O  O281  1  0.99873000  0.23293400  0.28439300  1
  C  C282  1  0.98940000  0.29003100  0.24130000  1
  H  H283  1  0.95641400  0.20068600  0.28210300  1
  H  H284  1  0.91464700  0.16820700  0.26074100  1
  C  C285  1  0.97650000  0.17269800  0.27127600  1
  C  C286  1  0.98033500  0.29353800  0.20347900  1
  C  C287  1  0.92648000  0.34910000  0.24001200  1
  C  C288  1  0.95061200  0.30778800  0.25329600  1
  H  H289  1  0.95530900  0.31327400  0.27877500  1
  H  H290  1  0.93285700  0.28926500  0.24780100  1
  H  H291  1  0.95537700  0.28015500  0.19413900  1
  C  C292  1  0.96812700  0.33636600  0.19458200  1
  H  H293  1  0.94241700  0.34321000  0.17635000  1
  H  H294  1  0.90115000  0.34603700  0.22224900  1
  C  C295  1  0.74255600  0.36908600  0.22458600  1
  C  C296  1  0.95530500  0.36758500  0.22375200  1
  H  H297  1  0.91055800  0.36937500  0.25954900  1
  H  H298  1  0.99223000  0.34217000  0.18603100  1
  C  C299  1  0.99095200  0.36645100  0.24418700  1
  C  C300  1  0.01723310  0.39445400  0.23639200  1
  H  H301  1  0.00896006  0.40567000  0.21249100  1
  H  H302  1  0.01146830  0.42260400  0.25278400  1
  H  H303  1  0.04759010  0.37984700  0.23866500  1
  H  H304  1  0.01704450  0.53101700  0.31458200  1
  H  H305  1  0.01077460  0.55925600  0.24787700  1
  H  H306  1  0.05711580  0.58507000  0.26748300  1
  C  C307  1  0.26556800  0.39158800  0.22789700  1
  C  C308  1  0.21611000  0.56593800  0.20427800  1
  C  C309  1  0.23054800  0.54082000  0.17744300  1
  C  C310  1  0.14636100  0.56869900  0.18582600  1
  C  C311  1  0.17296900  0.57906000  0.21082300  1
  H  H312  1  0.11340300  0.58321500  0.18468400  1
  O  O313  1  0.33181300  0.40806800  0.23921600  1
  Cu  Cu314  1  0.30943500  0.49531500  0.24203700  1
  C  C315  1  0.29120600  0.42074600  0.23212900  1
  O  O316  1  0.27352000  0.46078500  0.22967300  1
  H  H317  1  0.26246200  0.53163800  0.17180500  1
  C  C318  1  0.28818600  0.56823600  0.21489400  1
  O  O319  1  0.31426000  0.53166200  0.21535900  1
  H  H320  1  0.32930200  0.57224700  0.32115300  1
  O  O321  1  0.32367500  0.51566100  0.28323900  1
  Cu  Cu322  1  0.36600400  0.44588100  0.23416400  1
  C  C323  1  0.24589900  0.57559400  0.22505700  1
  O  O324  1  0.31412100  0.53168200  0.21546500  1
  C  C325  1  0.42818700  0.41141200  0.22039600  1
  H  H326  1  0.48144200  0.37853100  0.26570700  1
  O  O327  1  0.39651900  0.42160500  0.19878100  1
  O  O328  1  0.41935600  0.42929900  0.24911000  1
  O  O329  1  0.38164500  0.48914400  0.25874000  1
  H  H330  1  0.47491600  0.51435900  0.26819600  1
  H  H331  1  0.42718300  0.52973700  0.24895700  1
  C  C332  1  0.36251300  0.51406400  0.28127600  1
  C  C333  1  0.38301100  0.54008200  0.29992100  1
  C  C334  1  0.42541000  0.53859000  0.29587800  1
  C  C335  1  0.44725900  0.56267200  0.31561300  1
  N  N336  1  0.44428600  0.51522100  0.26875200  1
  N  N337  1  0.36080700  0.56915600  0.32307700  1
  H  H338  1  0.42855100  0.58681000  0.33091900  1
  H  H339  1  0.29488400  0.58995900  0.27399900  1
  H  H340  1  0.51704500  0.53101600  0.31458300  1
  C  C341  1  0.49333600  0.56068300  0.31648800  1
  C  C342  1  0.51723400  0.39445400  0.23639200  1
  H  H343  1  0.50896000  0.40566900  0.21249100  1
  H  H344  1  0.51146900  0.42260400  0.25278400  1
  H  H345  1  0.54759100  0.37984600  0.23866600  1
  H  H346  1  0.51077500  0.55925600  0.24787700  1
  C  C347  1  0.64636200  0.56869900  0.18582500  1
  H  H348  1  0.55711600  0.58507000  0.26748300  1
  C  C349  1  0.67296900  0.57906000  0.21082100  1
  H  H350  1  0.61340400  0.58321400  0.18468300  1
  C  C351  1  0.76556300  0.39159100  0.22789400  1
  C  C352  1  0.79120500  0.42075000  0.23212600  1
  O  O353  1  0.77352200  0.46079000  0.22966900  1
  C  C354  1  0.71611000  0.56593900  0.20427800  1
  C  C355  1  0.73055000  0.54081600  0.17744500  1
  C  C356  1  0.74589800  0.57559700  0.22505600  1
  O  O357  1  0.83181200  0.40807100  0.23921600  1
  Cu  Cu358  1  0.80943600  0.49531900  0.24203800  1
  Cu  Cu359  1  0.86600400  0.44588200  0.23416300  1
  C  C360  1  0.92818700  0.41141200  0.22039500  1
  O  O361  1  0.89651900  0.42160500  0.19878000  1
  O  O362  1  0.91935500  0.42929900  0.24910900  1
  O  O363  1  0.88164600  0.48914300  0.25874200  1
  H  H364  1  0.76246700  0.53162900  0.17181200  1
  C  C365  1  0.78818500  0.56824200  0.21489300  1
  O  O366  1  0.81425700  0.53168200  0.21536500  1
  H  H367  1  0.82930200  0.57224500  0.32115300  1
  C  C368  1  0.86251600  0.51405900  0.28128000  1
  C  C369  1  0.88301200  0.54007800  0.29992400  1
  C  C370  1  0.92541000  0.53858800  0.29587900  1
  N  N371  1  0.86080700  0.56915400  0.32307800  1
  O  O372  1  0.82367800  0.51565500  0.28324400  1
  O  O373  1  0.81413200  0.53168100  0.21547200  1
  H  H374  1  0.79488400  0.58995300  0.27399900  1
  H  H375  1  0.98143900  0.37853300  0.26570600  1
  H  H376  1  0.97491500  0.51435800  0.26819600  1
  H  H377  1  0.92718200  0.52973700  0.24895800  1
  C  C378  1  0.94725800  0.56267200  0.31561300  1
  N  N379  1  0.94428500  0.51522100  0.26875200  1
  H  H380  1  0.92855000  0.58681000  0.33091900  1
  C  C381  1  0.99333500  0.56068300  0.31648800  1
  C  C382  1  0.00276196  0.59721800  0.32066100  1
  H  H383  1  0.07400740  0.67868100  0.28823500  1
  C  C384  1  0.03122500  0.61167600  0.26191100  1
  C  C385  1  0.02268340  0.65591200  0.27390900  1
  C  C386  1  0.06528430  0.74924600  0.33291000  1
  C  C387  1  0.04668380  0.71955700  0.32601800  1
  C  C388  1  0.05968700  0.68356300  0.29591200  1
  C  C389  1  0.00726455  0.74394400  0.25436400  1
  H  H390  1  0.03873280  0.80058300  0.29291500  1
  O  O391  1  0.08605470  0.63972500  0.23303200  1
  O  O392  1  0.10251300  0.61078100  0.28562700  1
  O  O393  1  0.02186010  0.71417200  0.23258900  1
  H  H394  1  0.00824636  0.77488200  0.19166400  1
  O  O395  1  0.03591460  0.60853100  0.32168600  1
  Cu  Cu396  1  0.01688510  0.67700000  0.32554200  1
  Cu  Cu397  1  0.03921170  0.63296100  0.32490000  1
  C  C398  1  0.00180471  0.59107800  0.25107500  1
  O  O399  1  0.07397210  0.70119700  0.16854400  1
  C  C400  1  0.11434300  0.61554500  0.25300300  1
  Cu  Cu401  1  0.07560430  0.69672000  0.21412300  1
  O  O402  1  0.08355890  0.76621900  0.16747100  1
  C  C403  1  0.09876210  0.68493700  0.28557900  1
  H  H404  1  0.18827600  0.71493300  0.24403500  1
  H  H405  1  0.18862300  0.71644400  0.24458500  1
  H  H406  1  0.19770600  0.70504100  0.32778900  1
  C  C407  1  0.19203400  0.62008800  0.25544700  1
  C  C408  1  0.15976200  0.60397200  0.24037800  1
  C  C409  1  0.18867600  0.66151100  0.26393700  1
  N  N410  1  0.18387600  0.68748800  0.23996700  1
  Cu  Cu411  1  0.11109100  0.76314900  0.20811300  1
  H  H412  1  0.13188800  0.79571200  0.28835700  1
  C  C413  1  0.11036700  0.74042500  0.26666500  1
  C  C414  1  0.10859300  0.72010100  0.29154600  1
  C  C415  1  0.09993820  0.74559100  0.31835500  1
  C  C416  1  0.13829300  0.79558100  0.31278900  1
  C  C417  1  0.12696800  0.76950700  0.33095300  1
  O  O418  1  0.10630200  0.72744400  0.23738500  1
  O  O419  1  0.10622900  0.72723800  0.23698700  1
  O  O420  1  0.16662200  0.76139900  0.20200100  1
  C  C421  1  0.15917400  0.79893300  0.21651100  1
  H  H422  1  0.19731200  0.73347400  0.29461400  1
  H  H423  1  0.27290800  0.64468500  0.31322900  1
  C  C424  1  0.21403400  0.66850800  0.29012900  1
  C  C425  1  0.25187300  0.63925100  0.29624400  1
  C  C426  1  0.26417400  0.60622200  0.27460300  1
  C  C427  1  0.23415100  0.59832900  0.25244200  1
  N  N428  1  0.20694600  0.70545700  0.30524100  1
  H  H429  1  0.43894000  0.59580800  0.24521400  1
  H  H430  1  0.41464700  0.66820700  0.26074200  1
  C  C431  1  0.50180500  0.59107700  0.25107500  1
  H  H432  1  0.45641300  0.70068600  0.28210300  1
  C  C433  1  0.47649800  0.67269800  0.27127500  1
  C  C434  1  0.44765100  0.65260400  0.25908900  1
  C  C435  1  0.46030700  0.61157800  0.24994700  1
  H  H436  1  0.43285800  0.78926400  0.24780100  1
  C  C437  1  0.53122500  0.61167600  0.26191100  1
  H  H438  1  0.45537700  0.78015500  0.19413800  1
  C  C439  1  0.50276300  0.59721800  0.32066100  1
  O  O440  1  0.53591500  0.60853100  0.32168600  1
  O  O441  1  0.47541300  0.62912900  0.31901000  1
  Cu  Cu442  1  0.51688500  0.67700000  0.32554200  1
  O  O443  1  0.49873600  0.73292700  0.28438500  1
  O  O444  1  0.58356100  0.76621600  0.16747400  1
  C  C445  1  0.52268300  0.65591200  0.27390900  1
  O  O446  1  0.57396300  0.70119900  0.16854400  1
  C  C447  1  0.61434200  0.61554300  0.25300200  1
  C  C448  1  0.65976100  0.60397200  0.24037700  1
  O  O449  1  0.58606000  0.63973200  0.23303300  1
  O  O450  1  0.60251300  0.61078200  0.28562700  1
  Cu  Cu451  1  0.61106400  0.76307300  0.20814800  1
  Cu  Cu452  1  0.57565700  0.69677700  0.21412500  1
  H  H453  1  0.57400600  0.67868200  0.28823800  1
  C  C454  1  0.61038500  0.74041800  0.26665300  1
  C  C455  1  0.59875600  0.68494000  0.28557300  1
  C  C456  1  0.60858800  0.72010300  0.29154000  1
  C  C457  1  0.59993800  0.74559000  0.31835500  1
  C  C458  1  0.56528400  0.74924500  0.33291100  1
  C  C459  1  0.54668400  0.71955700  0.32601900  1
  C  C460  1  0.55968700  0.68356200  0.29591200  1
  C  C461  1  0.62696800  0.76950700  0.33095300  1
  O  O462  1  0.60601000  0.72704300  0.23750300  1
  O  O463  1  0.60646900  0.72768000  0.23682700  1
  C  C464  1  0.50725900  0.74394500  0.25436500  1
  H  H465  1  0.53873400  0.80058200  0.29291500  1
  O  O466  1  0.52186200  0.71417700  0.23259000  1
  C  C467  1  0.48033600  0.79353700  0.20347800  1
  C  C468  1  0.48940500  0.79002700  0.24129700  1
  H  H469  1  0.50824700  0.77488200  0.19166400  1
  Cu  Cu470  1  0.53921200  0.63296100  0.32490000  1
  H  H471  1  0.68828300  0.71492700  0.24405000  1
  H  H472  1  0.68862100  0.71644400  0.24456700  1
  H  H473  1  0.69730900  0.73347500  0.29461400  1
  H  H474  1  0.69771000  0.70503900  0.32778700  1
  C  C475  1  0.69203300  0.62008800  0.25544800  1
  C  C476  1  0.68867800  0.66150900  0.26393800  1
  C  C477  1  0.71404100  0.66850800  0.29012600  1
  C  C478  1  0.73415100  0.59832800  0.25244300  1
  N  N479  1  0.68386900  0.68748800  0.23996900  1
  N  N480  1  0.70695200  0.70545700  0.30523900  1
  H  H481  1  0.63188600  0.79571600  0.28835800  1
  C  C482  1  0.63829300  0.79558100  0.31279000  1
  O  O483  1  0.66661600  0.76139600  0.20200800  1
  C  C484  1  0.65917400  0.79893500  0.21651000  1
  H  H485  1  0.77291200  0.64468000  0.31322800  1
  C  C486  1  0.75187700  0.63924800  0.29624400  1
  C  C487  1  0.76417400  0.60621800  0.27460400  1
  H  H488  1  0.93894000  0.59580900  0.24521400  1
  H  H489  1  0.91464700  0.66820700  0.26074200  1
  O  O490  1  0.99873700  0.73292600  0.28438400  1
  C  C491  1  0.94765100  0.65260400  0.25908900  1
  C  C492  1  0.96030700  0.61157900  0.24994700  1
  H  H493  1  0.95641300  0.70068600  0.28210400  1
  C  C494  1  0.97649800  0.67269800  0.27127500  1
  H  H495  1  0.93285800  0.78926500  0.24780100  1
  C  C496  1  0.98940600  0.79002700  0.24129700  1
  C  C497  1  0.98033600  0.79353700  0.20347800  1
  H  H498  1  0.95537700  0.78015500  0.19413800  1
  O  O499  1  0.97541200  0.62912900  0.31901000  1
  C  C500  1  0.01736540  0.82091000  0.24797200  1
  C  C501  1  0.04486040  0.82069600  0.27726400  1
  C  C502  1  0.01723390  0.89445400  0.23639200  1
  H  H503  1  0.04359710  0.85109100  0.28911300  1
  H  H504  1  0.00896030  0.90567000  0.21249100  1
  H  H505  1  0.01146860  0.92260400  0.25278400  1
  H  H506  1  0.03960670  0.81215400  0.22877500  1
  C  C507  1  0.16861200  0.81267100  0.32340800  1
  H  H508  1  0.07546640  0.81276500  0.26913600  1
  H  H509  1  0.04759090  0.87984700  0.23866600  1
  O  O510  1  0.12128200  0.81337700  0.22716400  1
  H  H511  1  0.17701300  0.83098200  0.30781100  1
  C  C512  1  0.18933900  0.82327200  0.21920300  1
  C  C513  1  0.21402900  0.84393100  0.22140800  1
  C  C514  1  0.24255900  0.86908400  0.22458700  1
  Cu  Cu515  1  0.30943500  0.99532000  0.24203700  1
  C  C516  1  0.26556600  0.89158900  0.22789500  1
  C  C517  1  0.29120600  0.92074800  0.23212600  1
  O  O518  1  0.33181200  0.90807100  0.23921600  1
  O  O519  1  0.27352200  0.96078800  0.22966700  1
  Cu  Cu520  1  0.36600400  0.94588200  0.23416300  1
  C  C521  1  0.42648100  0.84909900  0.24001200  1
  H  H522  1  0.41055800  0.86937500  0.25954900  1
  H  H523  1  0.40115000  0.84603700  0.22224900  1
  O  O524  1  0.39651900  0.92160500  0.19878000  1
  O  O525  1  0.38164400  0.98914400  0.25874000  1
  C  C526  1  0.45061500  0.80778500  0.25329600  1
  H  H527  1  0.45531000  0.81327300  0.27877400  1
  O  O528  1  0.41935500  0.92929900  0.24910900  1
  C  C529  1  0.42818700  0.91141200  0.22039500  1
  H  H530  1  0.44241700  0.84321100  0.17635000  1
  H  H531  1  0.57546600  0.81277000  0.26913600  1
  C  C532  1  0.46812700  0.83636700  0.19458200  1
  C  C533  1  0.45530600  0.86758400  0.22375300  1
  H  H534  1  0.48144200  0.87853100  0.26570700  1
  H  H535  1  0.49223000  0.84217100  0.18603100  1
  C  C536  1  0.54486000  0.82069700  0.27726400  1
  C  C537  1  0.51723400  0.89445400  0.23639200  1
  C  C538  1  0.51736500  0.82091000  0.24797200  1
  C  C539  1  0.49095300  0.86645000  0.24418800  1
  H  H540  1  0.54359500  0.85109200  0.28911400  1
  H  H541  1  0.50896000  0.90567000  0.21249100  1
  H  H542  1  0.51146900  0.92260400  0.25278400  1
  H  H543  1  0.54759100  0.87984700  0.23866600  1
  H  H544  1  0.53960700  0.81215400  0.22877500  1
  C  C545  1  0.66861200  0.81267100  0.32340900  1
  H  H546  1  0.67701300  0.83098300  0.30781200  1
  O  O547  1  0.62128100  0.81337100  0.22716600  1
  C  C548  1  0.68934100  0.82327200  0.21920300  1
  C  C549  1  0.74256000  0.86908200  0.22458900  1
  C  C550  1  0.71403100  0.84393000  0.22140900  1
  C  C551  1  0.76556700  0.89158600  0.22789700  1
  C  C552  1  0.79120600  0.92074600  0.23212900  1
  O  O553  1  0.77352000  0.96078500  0.22967100  1
  Cu  Cu554  1  0.80943400  0.99531500  0.24203600  1
  O  O555  1  0.83181300  0.90806800  0.23921700  1
  C  C556  1  0.99095300  0.86645000  0.24418800  1
  Cu  Cu557  1  0.86600400  0.94588100  0.23416400  1
  C  C558  1  0.92648100  0.84909900  0.24001300  1
  C  C559  1  0.95061500  0.80778500  0.25329600  1
  C  C560  1  0.96812700  0.83636700  0.19458200  1
  C  C561  1  0.95530600  0.86758500  0.22375300  1
  C  C562  1  0.92818700  0.91141200  0.22039600  1
  H  H563  1  0.98144200  0.87853100  0.26570700  1
  H  H564  1  0.91055800  0.86937500  0.25954900  1
  H  H565  1  0.99223000  0.84217100  0.18603100  1
  H  H566  1  0.95531000  0.81327400  0.27877400  1
  H  H567  1  0.94241700  0.84321100  0.17635000  1
  H  H568  1  0.90115000  0.84603700  0.22224900  1
  O  O569  1  0.89651900  0.92160500  0.19878100  1
  O  O570  1  0.91935600  0.92929900  0.24911000  1
  O  O571  1  0.88164500  0.98914500  0.25874000  1
  C  C572  1  0.05228220  0.14669500  0.40097200  1
  H  H573  1  0.09081220  0.07784520  0.48225600  1
  C  C574  1  0.07488670  0.13839300  0.46853700  1
  N  N575  1  0.08325940  0.09664380  0.46411400  1
  H  H576  1  0.09126190  0.07660490  0.48319400  1
  C  C577  1  0.05910880  0.16450800  0.44030700  1
  O  O578  1  0.05051260  0.16091700  0.37194500  1
  O  O579  1  0.05131660  0.16814200  0.37199400  1
  H  H580  1  0.37320200  0.05853510  0.34528600  1
  C  C581  1  0.55228200  0.14669400  0.40097100  1
  H  H582  1  0.59080300  0.07794370  0.48231800  1
  H  H583  1  0.59127500  0.07649220  0.48312700  1
  C  C584  1  0.57488900  0.13839400  0.46853800  1
  N  N585  1  0.58325400  0.09664610  0.46411700  1
  C  C586  1  0.55910900  0.16450700  0.44030700  1
  O  O587  1  0.55051200  0.16091700  0.37194500  1
  O  O588  1  0.55131600  0.16814200  0.37199300  1
  H  H589  1  0.87320400  0.05853460  0.34528600  1
  H  H590  1  0.02120860  0.22861000  0.43888600  1
  C  C591  1  0.04126520  0.20630800  0.45365000  1
  C  C592  1  0.00822387  0.22547600  0.34011400  1
  C  C593  1  0.04354600  0.22207400  0.48717200  1
  H  H594  1  0.02649340  0.25388300  0.49325800  1
  H  H595  1  0.01083990  0.29740400  0.34802600  1
  H  H596  1  0.02952580  0.29120500  0.39945600  1
  H  H597  1  0.05390160  0.31457500  0.34900500  1
  H  H598  1  0.06428100  0.24458600  0.38934300  1
  H  H599  1  0.08039730  0.28735500  0.39603200  1
  C  C600  1  0.04496340  0.28701200  0.35326400  1
  C  C601  1  0.05568960  0.27660100  0.38729400  1
  C  C602  1  0.19339800  0.29894500  0.35003500  1
  H  H603  1  0.14490500  0.23333400  0.37036700  1
  H  H604  1  0.23046500  0.25909600  0.40291000  1
  H  H605  1  0.23704500  0.22025000  0.37299300  1
  C  C606  1  0.14973000  0.25793800  0.35900800  1
  C  C607  1  0.18528800  0.26952200  0.36714100  1
  N  N608  1  0.21617300  0.24514700  0.38463200  1
  H  H609  1  0.22187800  0.30616000  0.35456700  1
  O  O610  1  0.49348600  0.19332800  0.33475100  1
  H  H611  1  0.52120900  0.22861000  0.43888700  1
  C  C612  1  0.54126400  0.20630600  0.45365000  1
  H  H613  1  0.52952600  0.29120500  0.39945500  1
  H  H614  1  0.51084200  0.29740300  0.34802600  1
  C  C615  1  0.50822100  0.22547900  0.34011200  1
  C  C616  1  0.54496700  0.28700900  0.35326200  1
  O  O617  1  0.48011800  0.20305100  0.33938300  1
  C  C618  1  0.54354400  0.22207200  0.48717200  1
  H  H619  1  0.52649300  0.25388000  0.49326000  1
  H  H620  1  0.55390300  0.31457400  0.34900400  1
  H  H621  1  0.64490400  0.23333400  0.37036600  1
  H  H622  1  0.56428100  0.24458600  0.38934200  1
  H  H623  1  0.58039700  0.28735500  0.39603200  1
  C  C624  1  0.55569000  0.27660100  0.38729300  1
  C  C625  1  0.64973000  0.25793700  0.35900600  1
  H  H626  1  0.72187800  0.30616000  0.35456700  1
  C  C627  1  0.69339900  0.29894500  0.35003600  1
  H  H628  1  0.73046500  0.25909600  0.40291000  1
  H  H629  1  0.73704400  0.22025100  0.37299200  1
  C  C630  1  0.68528800  0.26952200  0.36714100  1
  N  N631  1  0.71617300  0.24514700  0.38463200  1
  O  O632  1  0.98011900  0.20305000  0.33938300  1
  O  O633  1  0.99348600  0.19332700  0.33475000  1
  H  H634  1  0.09081550  0.57783100  0.48224700  1
  H  H635  1  0.09126150  0.57662500  0.48320700  1
  N  N636  1  0.08326250  0.59664300  0.46411400  1
  H  H637  1  0.37320300  0.55853500  0.34528600  1
  H  H638  1  0.59080300  0.57792700  0.48231000  1
  H  H639  1  0.59127300  0.57649600  0.48313200  1
  N  N640  1  0.58324500  0.59664600  0.46411900  1
  H  H641  1  0.87320200  0.55853500  0.34528800  1
  O  O642  1  0.05131570  0.66814300  0.37199400  1
  H  H643  1  0.02120830  0.72861000  0.43888600  1
  C  C644  1  0.05228270  0.64669500  0.40097200  1
  C  C645  1  0.05910930  0.66450800  0.44030700  1
  C  C646  1  0.04126300  0.70630700  0.45365000  1
  O  O647  1  0.05051210  0.66091700  0.37194500  1
  H  H648  1  0.06428100  0.74458600  0.38934200  1
  H  H649  1  0.02952590  0.79120400  0.39945500  1
  H  H650  1  0.01084110  0.79740300  0.34802600  1
  C  C651  1  0.00822188  0.72547800  0.34011100  1
  C  C652  1  0.04496590  0.78701000  0.35326200  1
  C  C653  1  0.05568980  0.77660000  0.38729300  1
  C  C654  1  0.04354150  0.72207300  0.48717300  1
  C  C655  1  0.07489070  0.63839200  0.46853700  1
  H  H656  1  0.02649020  0.75388300  0.49325800  1
  H  H657  1  0.08039710  0.78735500  0.39603200  1
  H  H658  1  0.14490300  0.73333500  0.37036600  1
  C  C659  1  0.14972900  0.75793900  0.35900600  1
  C  C660  1  0.18528700  0.76952300  0.36714100  1
  H  H661  1  0.22187700  0.80616000  0.35456600  1
  C  C662  1  0.19339800  0.79894500  0.35003500  1
  H  H663  1  0.23046400  0.75909600  0.40291000  1
  H  H664  1  0.23704400  0.72025100  0.37299200  1
  N  N665  1  0.21617200  0.74514800  0.38463200  1
  O  O666  1  0.49348600  0.69332700  0.33475000  1
  H  H667  1  0.52120800  0.72861000  0.43888600  1
  O  O668  1  0.48011800  0.70305100  0.33938300  1
  C  C669  1  0.50822100  0.72547800  0.34011200  1
  O  O670  1  0.55131600  0.66814200  0.37199400  1
  C  C671  1  0.54126400  0.70630800  0.45365000  1
  O  O672  1  0.55051200  0.66091700  0.37194500  1
  C  C673  1  0.55228200  0.64669600  0.40097200  1
  C  C674  1  0.55911000  0.66450900  0.44030800  1
  H  H675  1  0.64490500  0.73333300  0.37036600  1
  H  H676  1  0.56428100  0.74458600  0.38934200  1
  H  H677  1  0.58039700  0.78735500  0.39603200  1
  H  H678  1  0.52952600  0.79120400  0.39945500  1
  H  H679  1  0.51084100  0.79740300  0.34802600  1
  C  C680  1  0.54496600  0.78701000  0.35326300  1
  C  C681  1  0.55569000  0.77660000  0.38729300  1
  C  C682  1  0.54354300  0.72207600  0.48717300  1
  C  C683  1  0.57488900  0.63839400  0.46854000  1
  H  H684  1  0.52648800  0.75388400  0.49325800  1
  C  C685  1  0.69339800  0.79894400  0.35003600  1
  C  C686  1  0.64973000  0.75793700  0.35900600  1
  C  C687  1  0.68528800  0.76952200  0.36714100  1
  N  N688  1  0.71617300  0.74514700  0.38463200  1
  H  H689  1  0.72187800  0.80615900  0.35456700  1
  H  H690  1  0.73046500  0.75909600  0.40291000  1
  H  H691  1  0.73704500  0.72025000  0.37299300  1
  O  O692  1  0.98011800  0.70305100  0.33938300  1
  O  O693  1  0.99348600  0.69332800  0.33475000  1
  H  H694  1  0.05390140  0.81457500  0.34900500  1
  H  H695  1  0.55390200  0.81457400  0.34900500  1
  H  H696  1  0.09439930  0.13559500  0.54801600  1
  C  C697  1  0.07898160  0.15520100  0.50230300  1
  N  N698  1  0.09361880  0.12755700  0.52497800  1
  H  H699  1  0.09451460  0.13587100  0.54932700  1
  H  H700  1  0.14279700  0.03161300  0.64183700  1
  C  C701  1  0.16300400  0.04002000  0.66031500  1
  C  C702  1  0.20578500  0.02337640  0.65823300  1
  H  H703  1  0.59438000  0.13564300  0.54800800  1
  H  H704  1  0.59452900  0.13583600  0.54933400  1
  C  C705  1  0.57898600  0.15520300  0.50230200  1
  N  N706  1  0.59362400  0.12756200  0.52497700  1
  H  H707  1  0.64279700  0.03161200  0.64183800  1
  C  C708  1  0.70578400  0.02337870  0.65823200  1
  C  C709  1  0.66300400  0.04002050  0.66031500  1
  H  H710  1  0.00830216  0.25407000  0.55544600  1
  H  H711  1  0.01283520  0.27255700  0.61078500  1
  C  C712  1  0.06528280  0.19818300  0.51253800  1
  C  C713  1  0.03547800  0.24205600  0.56608600  1
  C  C714  1  0.03881520  0.25064000  0.59981000  1
  C  C715  1  0.07473340  0.23152800  0.61839300  1
  C  C716  1  0.07644210  0.23340900  0.65243200  1
  C  C717  1  0.06958860  0.21638700  0.54903100  1
  C  C718  1  0.11078500  0.21583600  0.60183300  1
  C  C719  1  0.10809900  0.20756700  0.56817600  1
  H  H720  1  0.13735700  0.19359300  0.55826000  1
  H  H721  1  0.14116800  0.21059400  0.61447600  1
  H  H722  1  0.50830100  0.25406900  0.55544700  1
  H  H723  1  0.51283500  0.27255800  0.61078600  1
  C  C724  1  0.56528200  0.19818400  0.51253800  1
  C  C725  1  0.53547700  0.24205500  0.56608600  1
  C  C726  1  0.53881400  0.25063900  0.59981000  1
  C  C727  1  0.56958700  0.21638700  0.54903100  1
  C  C728  1  0.57473200  0.23152700  0.61839200  1
  C  C729  1  0.57644200  0.23340600  0.65243000  1
  H  H730  1  0.63735600  0.19359300  0.55826000  1
  H  H731  1  0.64116700  0.21059500  0.61447600  1
  C  C732  1  0.61078400  0.21583600  0.60183300  1
  C  C733  1  0.60809800  0.20756700  0.56817600  1
  H  H734  1  0.14279700  0.53161200  0.64183800  1
  C  C735  1  0.16300400  0.54002100  0.66031500  1
  H  H736  1  0.20728600  0.47365800  0.62483400  1
  H  H737  1  0.25330700  0.47925500  0.63906800  1
  N  N738  1  0.22407000  0.49039600  0.63862400  1
  C  C739  1  0.20578500  0.52337900  0.65823300  1
  H  H740  1  0.70728600  0.47365700  0.62483300  1
  N  N741  1  0.72407000  0.49039500  0.63862300  1
  H  H742  1  0.64279700  0.53161200  0.64183700  1
  C  C743  1  0.70578500  0.52337800  0.65823200  1
  C  C744  1  0.66300400  0.54002000  0.66031400  1
  H  H745  1  0.75330700  0.47925300  0.63906700  1
  H  H746  1  0.00829920  0.75407100  0.55544700  1
  H  H747  1  0.01283330  0.77255900  0.61078600  1
  H  H748  1  0.09440130  0.63559800  0.54801400  1
  H  H749  1  0.09451960  0.63586500  0.54932700  1
  C  C750  1  0.06527980  0.69818300  0.51253900  1
  C  C751  1  0.07898660  0.65520000  0.50230200  1
  C  C752  1  0.03547510  0.74205700  0.56608700  1
  C  C753  1  0.03881310  0.75064100  0.59981100  1
  C  C754  1  0.10809600  0.70756700  0.56817600  1
  C  C755  1  0.06958530  0.71638700  0.54903100  1
  C  C756  1  0.07473160  0.73152900  0.61839300  1
  C  C757  1  0.07644170  0.73340500  0.65243000  1
  N  N758  1  0.09363140  0.62755700  0.52497600  1
  C  C759  1  0.11078200  0.71583600  0.60183300  1
  H  H760  1  0.13735400  0.69359300  0.55825900  1
  H  H761  1  0.14116600  0.71059500  0.61447500  1
  H  H762  1  0.50830000  0.75407200  0.55544700  1
  H  H763  1  0.51283400  0.77255900  0.61078600  1
  C  C764  1  0.53547600  0.74205700  0.56608600  1
  C  C765  1  0.53881400  0.75064100  0.59981000  1
  H  H766  1  0.63735500  0.69359400  0.55826000  1
  H  H767  1  0.64116700  0.71059500  0.61447600  1
  H  H768  1  0.59436100  0.63569900  0.54799900  1
  H  H769  1  0.59456300  0.63576500  0.54934500  1
  C  C770  1  0.56528400  0.69818700  0.51253800  1
  C  C771  1  0.57899200  0.65520500  0.50230300  1
  C  C772  1  0.61078300  0.71583600  0.60183300  1
  C  C773  1  0.60809800  0.70756800  0.56817600  1
  C  C774  1  0.56958700  0.71639000  0.54903100  1
  C  C775  1  0.57473200  0.73152800  0.61839200  1
  C  C776  1  0.57644100  0.73340500  0.65243000  1
  N  N777  1  0.59363200  0.62756200  0.52497700  1
  H  H778  1  0.20728500  0.97365800  0.62483200  1
  N  N779  1  0.22406900  0.99039500  0.63862300  1
  H  H780  1  0.25330600  0.97925300  0.63906700  1
  H  H781  1  0.70728600  0.97365700  0.62483400  1
  H  H782  1  0.75330600  0.97925500  0.63906800  1
  N  N783  1  0.72407000  0.99039600  0.63862400  1
  H  H784  1  0.11340300  0.08321530  0.68468300  1
  O  O785  1  0.10250700  0.11078500  0.78562300  1
  H  H786  1  0.07401830  0.17868200  0.78822200  1
  H  H787  1  0.01077490  0.05925640  0.74787800  1
  H  H788  1  0.05711480  0.08506960  0.76748400  1
  C  C789  1  0.03122440  0.11167700  0.76191200  1
  C  C790  1  0.02268600  0.15591600  0.77390900  1
  C  C791  1  0.09881630  0.18490300  0.78563600  1
  C  C792  1  0.05968860  0.18357200  0.79590800  1
  C  C793  1  0.11433100  0.11554900  0.75299700  1
  O  O794  1  0.08602740  0.13969500  0.73301000  1
  H  H795  1  0.01704530  0.03101690  0.81458300  1
  Cu  Cu796  1  0.01688820  0.17700100  0.82554200  1
  O  O797  1  0.03591510  0.10853200  0.82168700  1
  C  C798  1  0.00276245  0.09721840  0.82066100  1
  Cu  Cu799  1  0.03921050  0.13296200  0.82489900  1
  C  C800  1  0.00180487  0.09107840  0.75107600  1
  C  C801  1  0.17296800  0.07906050  0.71082200  1
  C  C802  1  0.15975600  0.10397800  0.74037500  1
  C  C803  1  0.14636100  0.06869890  0.68582500  1
  H  H804  1  0.27290800  0.14468400  0.81322900  1
  H  H805  1  0.29488600  0.08995860  0.77399800  1
  H  H806  1  0.26246400  0.03163200  0.67180800  1
  C  C807  1  0.19203500  0.12008700  0.75544800  1
  C  C808  1  0.24589800  0.07559350  0.72505600  1
  C  C809  1  0.21611000  0.06593650  0.70427800  1
  C  C810  1  0.23054900  0.04081620  0.67744500  1
  C  C811  1  0.18868400  0.16150800  0.76393900  1
  C  C812  1  0.28818500  0.06823930  0.71489200  1
  C  C813  1  0.21403100  0.16850200  0.79013500  1
  C  C814  1  0.25187400  0.13924900  0.79624500  1
  C  C815  1  0.26417600  0.10622000  0.77460300  1
  C  C816  1  0.23415200  0.09832650  0.75244200  1
  O  O817  1  0.31429000  0.03166860  0.71534100  1
  O  O818  1  0.31410100  0.03168770  0.71549100  1
  H  H819  1  0.32930100  0.07224750  0.82115400  1
  C  C820  1  0.36251300  0.01406260  0.78127800  1
  N  N821  1  0.36080600  0.06915580  0.82307700  1
  O  O822  1  0.32367400  0.01566020  0.78324100  1
  N  N823  1  0.18394500  0.18746800  0.73996600  1
  C  C824  1  0.38301000  0.04008110  0.79992200  1
  C  C825  1  0.42540900  0.03858980  0.79587800  1
  H  H826  1  0.43894000  0.09580820  0.74521400  1
  H  H827  1  0.41464700  0.16820700  0.76074100  1
  C  C828  1  0.50180500  0.09107720  0.75107500  1
  C  C829  1  0.47649800  0.17269800  0.77127500  1
  C  C830  1  0.44765100  0.15260400  0.75908900  1
  C  C831  1  0.46030700  0.11157800  0.74994600  1
  H  H832  1  0.42855100  0.08681070  0.83091900  1
  H  H833  1  0.51704500  0.03101650  0.81458300  1
  H  H834  1  0.47491500  0.01435880  0.76819600  1
  H  H835  1  0.42718200  0.02973700  0.74895800  1
  C  C836  1  0.49333600  0.06068270  0.81648800  1
  C  C837  1  0.44725800  0.06267260  0.81561300  1
  N  N838  1  0.44428500  0.01522120  0.76875200  1
  H  H839  1  0.51077500  0.05925540  0.74787700  1
  H  H840  1  0.55711700  0.08507050  0.76748400  1
  C  C841  1  0.53122500  0.11167500  0.76191200  1
  C  C842  1  0.52268400  0.15591200  0.77391000  1
  Cu  Cu843  1  0.53921200  0.13296100  0.82490000  1
  C  C844  1  0.50276200  0.09721740  0.82066100  1
  O  O845  1  0.47541300  0.12912900  0.81901000  1
  Cu  Cu846  1  0.51688400  0.17700000  0.82554300  1
  O  O847  1  0.53591500  0.10853100  0.82168700  1
  H  H848  1  0.61340300  0.08321500  0.68468400  1
  C  C849  1  0.55968700  0.18356200  0.79591300  1
  C  C850  1  0.61433900  0.11554300  0.75300200  1
  O  O851  1  0.58604400  0.13970700  0.73302200  1
  O  O852  1  0.60251300  0.11078500  0.78562800  1
  H  H853  1  0.57400600  0.17868300  0.78824000  1
  C  C854  1  0.59875500  0.18494200  0.78557100  1
  H  H855  1  0.76246200  0.03163960  0.67180400  1
  C  C856  1  0.69203500  0.12008700  0.75544800  1
  C  C857  1  0.74589900  0.07559150  0.72505700  1
  C  C858  1  0.71611000  0.06593750  0.70427800  1
  C  C859  1  0.67296900  0.07905960  0.71082200  1
  C  C860  1  0.65976000  0.10397300  0.74037700  1
  C  C861  1  0.73054800  0.04082070  0.67744200  1
  C  C862  1  0.64636100  0.06869910  0.68582600  1
  C  C863  1  0.68867900  0.16150800  0.76394100  1
  C  C864  1  0.71403800  0.16850600  0.79013000  1
  C  C865  1  0.75187600  0.13924900  0.79624400  1
  C  C866  1  0.76417500  0.10622000  0.77460300  1
  C  C867  1  0.73415200  0.09832720  0.75244200  1
  N  N868  1  0.68388700  0.18748500  0.73997300  1
  H  H869  1  0.77291000  0.14468300  0.81322900  1
  H  H870  1  0.79488500  0.08995630  0.77399900  1
  C  C871  1  0.78818600  0.06823560  0.71489200  1
  O  O872  1  0.81425400  0.03166840  0.71536700  1
  O  O873  1  0.81413400  0.03167860  0.71546200  1
  H  H874  1  0.82930200  0.07224690  0.82115400  1
  C  C875  1  0.86251300  0.01406370  0.78127700  1
  N  N876  1  0.86080700  0.06915550  0.82307700  1
  O  O877  1  0.82367400  0.01566040  0.78324000  1
  H  H878  1  0.93894100  0.09580890  0.74521400  1
  H  H879  1  0.91464800  0.16820700  0.76074100  1
  C  C880  1  0.94765200  0.15260500  0.75908900  1
  C  C881  1  0.96030700  0.11157900  0.74994700  1
  H  H882  1  0.92855100  0.08681060  0.83091900  1
  H  H883  1  0.97491600  0.01435860  0.76819600  1
  H  H884  1  0.92718300  0.02973740  0.74895700  1
  C  C885  1  0.88301100  0.04008170  0.79992100  1
  C  C886  1  0.92541000  0.03859010  0.79587700  1
  C  C887  1  0.99333600  0.06068320  0.81648800  1
  C  C888  1  0.94725900  0.06267270  0.81561300  1
  N  N889  1  0.94428600  0.01522140  0.76875100  1
  O  O890  1  0.97541200  0.12912900  0.81901000  1
  C  C891  1  0.97649900  0.17269800  0.77127600  1
  C  C892  1  0.04668590  0.21955800  0.82601400  1
  C  C893  1  0.09993650  0.24559700  0.81835800  1
  C  C894  1  0.06528190  0.24925000  0.83291000  1
  C  C895  1  0.04485110  0.32071200  0.77726700  1
  C  C896  1  0.01723340  0.39445500  0.73639200  1
  C  C897  1  0.01736320  0.32091300  0.74797300  1
  C  C898  1  0.00725051  0.24394900  0.75436700  1
  H  H899  1  0.03873020  0.30059200  0.79291700  1
  H  H900  1  0.04358850  0.35110400  0.78911800  1
  H  H901  1  0.03960690  0.31215400  0.72877700  1
  H  H902  1  0.00824625  0.27488200  0.69166500  1
  O  O903  1  0.02180270  0.21418000  0.73258400  1
  O  O904  1  0.07395580  0.20120600  0.66854700  1
  Cu  Cu905  1  0.07553950  0.19671100  0.71412700  1
  H  H906  1  0.00896030  0.40567000  0.71249100  1
  C  C907  1  0.10861200  0.22009700  0.79156100  1
  H  H908  1  0.07545630  0.31281100  0.76913900  1
  H  H909  1  0.04759040  0.37984700  0.73866600  1
  C  C910  1  0.11010500  0.24050400  0.76665500  1
  O  O911  1  0.08355550  0.26623000  0.66746600  1
  O  O912  1  0.10647500  0.22730000  0.73739300  1
  O  O913  1  0.10639600  0.22706900  0.73699000  1
  Cu  Cu914  1  0.11107900  0.26320600  0.70812000  1
  C  C915  1  0.12696700  0.26950800  0.83095400  1
  H  H916  1  0.18832300  0.21491500  0.74413500  1
  H  H917  1  0.18860800  0.21646600  0.74448900  1
  H  H918  1  0.19730900  0.23347000  0.79461000  1
  H  H919  1  0.19770800  0.20504200  0.82779000  1
  N  N920  1  0.20694400  0.20545500  0.80524000  1
  H  H921  1  0.17701200  0.33098100  0.80780900  1
  H  H922  1  0.13188900  0.29567300  0.78834700  1
  C  C923  1  0.16861000  0.31266800  0.82340400  1
  C  C924  1  0.13829400  0.29557000  0.81278200  1
  C  C925  1  0.18934800  0.32328100  0.71920100  1
  C  C926  1  0.24256400  0.36908500  0.72458800  1
  C  C927  1  0.21403900  0.34393400  0.72140800  1
  C  C928  1  0.15917400  0.29896300  0.71650500  1
  O  O929  1  0.16660400  0.26143900  0.70198000  1
  O  O930  1  0.12128400  0.31342900  0.72715800  1
  C  C931  1  0.26556900  0.39159000  0.72789600  1
  H  H932  1  0.45641300  0.20068600  0.78210300  1
  C  C933  1  0.42648100  0.34909900  0.74001300  1
  C  C934  1  0.45061500  0.30778500  0.75329600  1
  C  C935  1  0.45530600  0.36758400  0.72375300  1
  H  H936  1  0.41055800  0.36937400  0.75954900  1
  H  H937  1  0.45531000  0.31327300  0.77877400  1
  H  H938  1  0.43285800  0.28926400  0.74780100  1
  H  H939  1  0.44241700  0.34321100  0.67635000  1
  H  H940  1  0.40115000  0.34603600  0.72224900  1
  H  H941  1  0.45537700  0.28015500  0.69413800  1
  O  O942  1  0.49873700  0.23292800  0.78438700  1
  O  O943  1  0.33181300  0.40807000  0.73921700  1
  C  C944  1  0.48033600  0.29353700  0.70347800  1
  C  C945  1  0.46812700  0.33636600  0.69458200  1
  C  C946  1  0.48940500  0.29002700  0.74129700  1
  C  C947  1  0.50725800  0.24394500  0.75436600  1
  O  O948  1  0.52182800  0.21417500  0.73258500  1
  C  C949  1  0.54668400  0.21955700  0.82602000  1
  H  H950  1  0.48144200  0.37853100  0.76570700  1
  H  H951  1  0.49223000  0.34217000  0.68603100  1
  O  O952  1  0.57396400  0.20120200  0.66854600  1
  Cu  Cu953  1  0.57557600  0.19672100  0.71412800  1
  C  C954  1  0.56528400  0.24924600  0.83291200  1
  C  C955  1  0.54485800  0.32069800  0.77726400  1
  C  C956  1  0.51723400  0.39445400  0.73639200  1
  C  C957  1  0.51736500  0.32091000  0.74797200  1
  C  C958  1  0.49095300  0.36645000  0.74418800  1
  H  H959  1  0.53873400  0.30058100  0.79291500  1
  H  H960  1  0.54359500  0.35109200  0.78911500  1
  H  H961  1  0.54759100  0.37984600  0.73866600  1
  H  H962  1  0.53960700  0.31215400  0.72877500  1
  H  H963  1  0.50824700  0.27488200  0.69166400  1
  H  H964  1  0.50896000  0.40566900  0.71249100  1
  O  O965  1  0.58355600  0.26622500  0.66746500  1
  C  C966  1  0.61031800  0.24044500  0.76666300  1
  C  C967  1  0.60859000  0.22010600  0.79154600  1
  O  O968  1  0.60636200  0.22740300  0.73738800  1
  O  O969  1  0.60628900  0.22719400  0.73698600  1
  H  H970  1  0.68829500  0.21492300  0.74410000  1
  H  H971  1  0.68860400  0.21645900  0.74452500  1
  H  H972  1  0.69730500  0.23347400  0.79460800  1
  H  H973  1  0.69771000  0.20504400  0.82778600  1
  N  N974  1  0.70695100  0.20545800  0.80523700  1
  Cu  Cu975  1  0.61108500  0.26317500  0.70811300  1
  H  H976  1  0.67701400  0.33098400  0.80781300  1
  H  H977  1  0.63188400  0.29571900  0.78835900  1
  C  C978  1  0.59993600  0.24559200  0.81835700  1
  C  C979  1  0.66861300  0.31267200  0.82341000  1
  C  C980  1  0.63829300  0.29558300  0.81279000  1
  C  C981  1  0.62696800  0.26950800  0.83095500  1
  H  H982  1  0.57546400  0.31277600  0.76913600  1
  C  C983  1  0.68934500  0.32327100  0.71920400  1
  C  C984  1  0.65917800  0.29894200  0.71651000  1
  O  O985  1  0.66661600  0.26141300  0.70199200  1
  O  O986  1  0.62128300  0.31340100  0.72715600  1
  C  C987  1  0.71403200  0.34393000  0.72140900  1
  C  C988  1  0.74255800  0.36908400  0.72458800  1
  C  C989  1  0.76556500  0.39158900  0.72789500  1
  O  O990  1  0.83181100  0.40807000  0.73921600  1
  H  H991  1  0.95641300  0.20068600  0.78210300  1
  H  H992  1  0.90115000  0.34603700  0.72224900  1
  O  O993  1  0.99873200  0.23293200  0.78438800  1
  C  C994  1  0.99095200  0.36645100  0.74418700  1
  C  C995  1  0.98940200  0.29003000  0.74129900  1
  C  C996  1  0.98033500  0.29353800  0.70347900  1
  C  C997  1  0.92648000  0.34910000  0.74001200  1
  C  C998  1  0.95061300  0.30778800  0.75329600  1
  C  C999  1  0.96812700  0.33636700  0.69458200  1
  C  C1000  1  0.95530500  0.36758500  0.72375300  1
  H  H1001  1  0.98144000  0.37853300  0.76570600  1
  H  H1002  1  0.91055800  0.36937500  0.75954900  1
  H  H1003  1  0.99223000  0.34217000  0.68603100  1
  H  H1004  1  0.95530800  0.31327500  0.77877500  1
  H  H1005  1  0.93285600  0.28926600  0.74780100  1
  H  H1006  1  0.94241700  0.34321000  0.67635000  1
  H  H1007  1  0.95537700  0.28015500  0.69413900  1
  H  H1008  1  0.01146850  0.42260400  0.75278400  1
  H  H1009  1  0.01077520  0.55925500  0.74787700  1
  C  C1010  1  0.03122550  0.61167500  0.76191100  1
  H  H1011  1  0.01704430  0.53101700  0.81458300  1
  O  O1012  1  0.03591470  0.60853100  0.82168700  1
  C  C1013  1  0.00276198  0.59721800  0.82066100  1
  C  C1014  1  0.00180521  0.59107700  0.75107500  1
  H  H1015  1  0.11340300  0.58321500  0.68468500  1
  C  C1016  1  0.14636100  0.56869900  0.68582600  1
  H  H1017  1  0.05711730  0.58507100  0.76748500  1
  C  C1018  1  0.17297000  0.57905900  0.71082200  1
  C  C1019  1  0.11434500  0.61554200  0.75300500  1
  O  O1020  1  0.10251600  0.61078200  0.78563000  1
  C  C1021  1  0.15976300  0.60397000  0.74037800  1
  C  C1022  1  0.29120600  0.42074800  0.73212800  1
  O  O1023  1  0.27352000  0.46078700  0.72967000  1
  H  H1024  1  0.26246400  0.53163700  0.67180600  1
  C  C1025  1  0.24589900  0.57559300  0.72505600  1
  C  C1026  1  0.21611000  0.56593800  0.70427700  1
  C  C1027  1  0.23054800  0.54082000  0.67744300  1
  C  C1028  1  0.26417400  0.60622100  0.77460200  1
  C  C1029  1  0.23415200  0.59832900  0.75244100  1
  C  C1030  1  0.19203400  0.62008800  0.75544600  1
  C  C1031  1  0.42818700  0.41141200  0.72039600  1
  Cu  Cu1032  1  0.30943300  0.49531900  0.74203800  1
  Cu  Cu1033  1  0.36600300  0.44588200  0.73416400  1
  O  O1034  1  0.39651900  0.42160500  0.69878100  1
  O  O1035  1  0.38164400  0.48914500  0.75874000  1
  H  H1036  1  0.29488400  0.58995600  0.77399900  1
  C  C1037  1  0.28818600  0.56823900  0.71489200  1
  O  O1038  1  0.31426100  0.53167400  0.71536500  1
  O  O1039  1  0.31413100  0.53168200  0.71547100  1
  H  H1040  1  0.32930100  0.57224600  0.82115300  1
  C  C1041  1  0.36251300  0.51406200  0.78127800  1
  C  C1042  1  0.38301100  0.54008000  0.79992100  1
  C  C1043  1  0.42540900  0.53859000  0.79587800  1
  N  N1044  1  0.36080600  0.56915400  0.82307700  1
  O  O1045  1  0.32367500  0.51565800  0.78324200  1
  O  O1046  1  0.41935500  0.42929900  0.74911000  1
  H  H1047  1  0.42718300  0.52973700  0.74895700  1
  H  H1048  1  0.42855000  0.58681100  0.83091900  1
  H  H1049  1  0.43894100  0.59580800  0.74521400  1
  C  C1050  1  0.46030700  0.61157800  0.74994600  1
  H  H1051  1  0.47491600  0.51435900  0.76819600  1
  C  C1052  1  0.49333500  0.56068300  0.81648800  1
  C  C1053  1  0.44725800  0.56267300  0.81561300  1
  N  N1054  1  0.44428500  0.51522100  0.76875100  1
  H  H1055  1  0.51146900  0.42260400  0.75278400  1
  C  C1056  1  0.50180500  0.59107700  0.75107500  1
  H  H1057  1  0.51704500  0.53101700  0.81458300  1
  H  H1058  1  0.51077500  0.55925500  0.74787700  1
  H  H1059  1  0.55711700  0.58507000  0.76748500  1
  C  C1060  1  0.53122500  0.61167500  0.76191200  1
  O  O1061  1  0.60251300  0.61078300  0.78562800  1
  C  C1062  1  0.50276200  0.59721800  0.82066100  1
  O  O1063  1  0.53591500  0.60853100  0.82168700  1
  H  H1064  1  0.61340300  0.58321500  0.68468300  1
  C  C1065  1  0.71611000  0.56593800  0.70427700  1
  C  C1066  1  0.67296900  0.57905900  0.71082100  1
  C  C1067  1  0.64636100  0.56869900  0.68582500  1
  C  C1068  1  0.61434200  0.61554300  0.75300300  1
  C  C1069  1  0.69203400  0.62008700  0.75544700  1
  C  C1070  1  0.65976100  0.60397100  0.74037700  1
  C  C1071  1  0.79120500  0.42074800  0.73212600  1
  O  O1072  1  0.77352100  0.46078800  0.72966600  1
  Cu  Cu1073  1  0.80943500  0.49531900  0.74203800  1
  H  H1074  1  0.79488400  0.58995400  0.77399900  1
  H  H1075  1  0.76246600  0.53163300  0.67180900  1
  C  C1076  1  0.74589800  0.57559500  0.72505600  1
  C  C1077  1  0.73054900  0.54081800  0.67744300  1
  C  C1078  1  0.78818400  0.56824200  0.71489200  1
  C  C1079  1  0.76417400  0.60621800  0.77460300  1
  C  C1080  1  0.73415100  0.59832800  0.75244100  1
  O  O1081  1  0.81410200  0.53166600  0.71551700  1
  O  O1082  1  0.81429600  0.53170300  0.71532900  1
  H  H1083  1  0.82930100  0.57224500  0.82115300  1
  O  O1084  1  0.82367700  0.51565300  0.78324400  1
  C  C1085  1  0.92818700  0.41141300  0.72039500  1
  Cu  Cu1086  1  0.86600300  0.44588100  0.73416300  1
  C  C1087  1  0.86251400  0.51405900  0.78127900  1
  O  O1088  1  0.89651900  0.42160500  0.69878000  1
  O  O1089  1  0.91935400  0.42929900  0.74910900  1
  O  O1090  1  0.88164400  0.48914400  0.75874000  1
  H  H1091  1  0.93894100  0.59580800  0.74521400  1
  H  H1092  1  0.92855000  0.58681100  0.83091900  1
  H  H1093  1  0.92718300  0.52973700  0.74895700  1
  C  C1094  1  0.88301100  0.54007900  0.79992200  1
  C  C1095  1  0.92540900  0.53858900  0.79587800  1
  C  C1096  1  0.94725800  0.56267300  0.81561300  1
  N  N1097  1  0.94428500  0.51522100  0.76875100  1
  N  N1098  1  0.86080600  0.56915400  0.82307700  1
  C  C1099  1  0.96030700  0.61157800  0.74994600  1
  H  H1100  1  0.97491500  0.51435900  0.76819600  1
  C  C1101  1  0.99333500  0.56068300  0.81648800  1
  C  C1102  1  0.02268280  0.65591100  0.77391000  1
  Cu  Cu1103  1  0.01688360  0.67700000  0.82554200  1
  Cu  Cu1104  1  0.03921270  0.63296100  0.82490000  1
  O  O1105  1  0.08355650  0.76622200  0.66746700  1
  O  O1106  1  0.08605430  0.63971700  0.73303200  1
  Cu  Cu1107  1  0.11109700  0.76316300  0.70810500  1
  H  H1108  1  0.07400250  0.67868200  0.78824300  1
  C  C1109  1  0.11043000  0.74041000  0.76667000  1
  C  C1110  1  0.09873660  0.68495400  0.78555200  1
  C  C1111  1  0.10858600  0.72010600  0.79154200  1
  C  C1112  1  0.09993820  0.74559000  0.81835600  1
  C  C1113  1  0.06528520  0.74924400  0.83291200  1
  C  C1114  1  0.04668330  0.71955700  0.82602000  1
  C  C1115  1  0.05968670  0.68355900  0.79591400  1
  C  C1116  1  0.12696900  0.76950800  0.83095400  1
  O  O1117  1  0.10629300  0.72746900  0.73738900  1
  O  O1118  1  0.10621600  0.72725900  0.73698800  1
  C  C1119  1  0.04486260  0.82069100  0.77726300  1
  C  C1120  1  0.01736610  0.82090900  0.74797200  1
  C  C1121  1  0.00726740  0.74394200  0.75436500  1
  H  H1122  1  0.03873420  0.80057900  0.79291500  1
  H  H1123  1  0.07546880  0.81275200  0.76913500  1
  H  H1124  1  0.03960690  0.81215400  0.72877500  1
  H  H1125  1  0.00824652  0.77488200  0.69166400  1
  O  O1126  1  0.02185470  0.71416900  0.73258800  1
  O  O1127  1  0.07397440  0.70119500  0.66854400  1
  Cu  Cu1128  1  0.07559670  0.69671200  0.71412400  1
  H  H1129  1  0.13188600  0.79573200  0.78836200  1
  C  C1130  1  0.13829300  0.79558600  0.81279200  1
  C  C1131  1  0.25187400  0.63925000  0.79624300  1
  H  H1132  1  0.18827600  0.71492900  0.74406400  1
  H  H1133  1  0.18860500  0.71645200  0.74455400  1
  H  H1134  1  0.19770600  0.70503800  0.82778900  1
  N  N1135  1  0.18385400  0.68749400  0.73997100  1
  O  O1136  1  0.12128300  0.81338000  0.72716000  1
  H  H1137  1  0.19731500  0.73347400  0.79461500  1
  C  C1138  1  0.18867500  0.66151000  0.76393800  1
  C  C1139  1  0.21403700  0.66850900  0.79012600  1
  N  N1140  1  0.20694500  0.70545600  0.80524000  1
  H  H1141  1  0.17701400  0.83098400  0.80781300  1
  C  C1142  1  0.16861300  0.81267300  0.82341100  1
  C  C1143  1  0.18933800  0.82327000  0.71920500  1
  C  C1144  1  0.15917800  0.79893000  0.71651300  1
  O  O1145  1  0.16662800  0.76139700  0.70199700  1
  O  O1146  1  0.47541300  0.62912900  0.81901000  1
  H  H1147  1  0.27290800  0.64468400  0.81322800  1
  H  H1148  1  0.45641300  0.70068600  0.78210300  1
  H  H1149  1  0.41464700  0.66820700  0.76074100  1
  C  C1150  1  0.44765100  0.65260400  0.75908900  1
  H  H1151  1  0.43285800  0.78926400  0.74780100  1
  Cu  Cu1152  1  0.53921200  0.63296100  0.82490000  1
  C  C1153  1  0.47649800  0.67269800  0.77127500  1
  C  C1154  1  0.48033600  0.79353700  0.70347800  1
  C  C1155  1  0.45061500  0.80778500  0.75329600  1
  H  H1156  1  0.45531000  0.81327300  0.77877400  1
  H  H1157  1  0.45537700  0.78015500  0.69413800  1
  O  O1158  1  0.49873700  0.73292700  0.78438600  1
  H  H1159  1  0.57400500  0.67868200  0.78824100  1
  C  C1160  1  0.52268300  0.65591200  0.77391000  1
  C  C1161  1  0.56528500  0.74924500  0.83291100  1
  C  C1162  1  0.54668400  0.71955700  0.82602000  1
  C  C1163  1  0.55968700  0.68356100  0.79591300  1
  C  C1164  1  0.51736500  0.82091000  0.74797200  1
  C  C1165  1  0.48940500  0.79002700  0.74129700  1
  C  C1166  1  0.50726200  0.74394400  0.75436500  1
  H  H1167  1  0.53873400  0.80058100  0.79291500  1
  H  H1168  1  0.50824600  0.77488200  0.69166400  1
  O  O1169  1  0.52185000  0.71417300  0.73258700  1
  O  O1170  1  0.58605200  0.63971900  0.73302800  1
  Cu  Cu1171  1  0.51688400  0.67700000  0.82554300  1
  H  H1172  1  0.53960700  0.81215400  0.72877500  1
  O  O1173  1  0.58355600  0.76622100  0.66746900  1
  C  C1174  1  0.59874800  0.68494600  0.78556400  1
  O  O1175  1  0.57396900  0.70120000  0.66854500  1
  C  C1176  1  0.68867700  0.66150900  0.76394000  1
  N  N1177  1  0.68387100  0.68749000  0.73997200  1
  Cu  Cu1178  1  0.61108700  0.76316200  0.70811100  1
  Cu  Cu1179  1  0.57559500  0.69672000  0.71412500  1
  H  H1180  1  0.63188500  0.79572200  0.78835900  1
  C  C1181  1  0.61037100  0.74042700  0.76666500  1
  C  C1182  1  0.60858800  0.72010500  0.79154300  1
  C  C1183  1  0.59993800  0.74559100  0.81835600  1
  C  C1184  1  0.63829300  0.79558300  0.81279100  1
  C  C1185  1  0.62696900  0.76950700  0.83095400  1
  O  O1186  1  0.60634400  0.72748300  0.73737100  1
  O  O1187  1  0.60621600  0.72719100  0.73700200  1
  C  C1188  1  0.54486000  0.82069500  0.77726400  1
  H  H1189  1  0.57546500  0.81276700  0.76913600  1
  C  C1190  1  0.65917500  0.79893500  0.71651100  1
  O  O1191  1  0.66661700  0.76140300  0.70199900  1
  O  O1192  1  0.62128100  0.81338500  0.72716000  1
  C  C1193  1  0.75187500  0.63924800  0.79624400  1
  H  H1194  1  0.68828000  0.71493100  0.74405600  1
  H  H1195  1  0.68861600  0.71644900  0.74456700  1
  H  H1196  1  0.69730600  0.73347400  0.79460900  1
  H  H1197  1  0.69771200  0.70504400  0.82778600  1
  H  H1198  1  0.77291000  0.64468100  0.81322800  1
  C  C1199  1  0.71403800  0.66850700  0.79012900  1
  N  N1200  1  0.70695200  0.70545800  0.80523700  1
  H  H1201  1  0.67701400  0.83098400  0.80781300  1
  C  C1202  1  0.66861300  0.81267200  0.82341000  1
  C  C1203  1  0.68934100  0.82327000  0.71920400  1
  H  H1204  1  0.91464700  0.66820700  0.76074100  1
  O  O1205  1  0.97541300  0.62912900  0.81901000  1
  H  H1206  1  0.95641400  0.70068600  0.78210400  1
  C  C1207  1  0.97649800  0.67269700  0.77127500  1
  C  C1208  1  0.94765100  0.65260400  0.75908900  1
  C  C1209  1  0.95061600  0.80778400  0.75329600  1
  H  H1210  1  0.93285900  0.78926300  0.74780100  1
  H  H1211  1  0.95531000  0.81327300  0.77877400  1
  H  H1212  1  0.95537700  0.78015500  0.69413800  1
  O  O1213  1  0.99873900  0.73292500  0.78438400  1
  C  C1214  1  0.98940700  0.79002600  0.74129600  1
  C  C1215  1  0.98033600  0.79353700  0.70347800  1
  H  H1216  1  0.04359920  0.85108600  0.78911200  1
  C  C1217  1  0.01723400  0.89445300  0.73639200  1
  H  H1218  1  0.00896027  0.90566900  0.71249100  1
  H  H1219  1  0.01146860  0.92260400  0.75278400  1
  H  H1220  1  0.04759090  0.87984600  0.73866600  1
  C  C1221  1  0.21402600  0.84393000  0.72140800  1
  H  H1222  1  0.40115000  0.84603700  0.72224900  1
  C  C1223  1  0.24255500  0.86908400  0.72458800  1
  C  C1224  1  0.26556300  0.89158800  0.72789500  1
  O  O1225  1  0.27352100  0.96078700  0.72966900  1
  C  C1226  1  0.29120400  0.92074700  0.73212700  1
  Cu  Cu1227  1  0.30943500  0.99531800  0.74203600  1
  Cu  Cu1228  1  0.36600300  0.94588100  0.73416500  1
  H  H1229  1  0.41055800  0.86937500  0.75954900  1
  O  O1230  1  0.38164500  0.98914300  0.75874200  1
  O  O1231  1  0.33181100  0.90807000  0.73921700  1
  C  C1232  1  0.42648100  0.84909900  0.74001300  1
  C  C1233  1  0.46812700  0.83636600  0.69458200  1
  H  H1234  1  0.49223000  0.84217000  0.68603100  1
  H  H1235  1  0.44241700  0.84321100  0.67635000  1
  H  H1236  1  0.54359600  0.85109100  0.78911400  1
  C  C1237  1  0.45530600  0.86758400  0.72375300  1
  C  C1238  1  0.42818700  0.91141200  0.72039500  1
  H  H1239  1  0.48144200  0.87853100  0.76570700  1
  O  O1240  1  0.39651800  0.92160500  0.69878100  1
  O  O1241  1  0.41935500  0.92929900  0.74910900  1
  C  C1242  1  0.49095300  0.86645000  0.74418800  1
  C  C1243  1  0.51723400  0.89445400  0.73639200  1
  H  H1244  1  0.50896000  0.90566900  0.71249100  1
  H  H1245  1  0.51146800  0.92260400  0.75278400  1
  H  H1246  1  0.54759100  0.87984600  0.73866600  1
  C  C1247  1  0.71403000  0.84392900  0.72140900  1
  C  C1248  1  0.74255900  0.86908200  0.72458900  1
  C  C1249  1  0.76556600  0.89158600  0.72789700  1
  Cu  Cu1250  1  0.80943300  0.99531600  0.74203700  1
  C  C1251  1  0.79120500  0.92074600  0.73212900  1
  O  O1252  1  0.83181200  0.90806800  0.73921700  1
  O  O1253  1  0.77352000  0.96078500  0.72967100  1
  C  C1254  1  0.92648100  0.84909800  0.74001300  1
  H  H1255  1  0.90115000  0.84603700  0.72224900  1
  H  H1256  1  0.94241700  0.84321100  0.67635100  1
  C  C1257  1  0.96812700  0.83636600  0.69458200  1
  H  H1258  1  0.99223000  0.84217000  0.68603100  1
  Cu  Cu1259  1  0.86600300  0.94588100  0.73416500  1
  H  H1260  1  0.91055800  0.86937400  0.75954900  1
  O  O1261  1  0.89651900  0.92160500  0.69878100  1
  O  O1262  1  0.88164400  0.98914500  0.75874000  1
  O  O1263  1  0.91935500  0.92929900  0.74911000  1
  C  C1264  1  0.92818700  0.91141200  0.72039600  1
  C  C1265  1  0.99095400  0.86644900  0.74418800  1
  C  C1266  1  0.95530600  0.86758400  0.72375300  1
  H  H1267  1  0.98144300  0.87853000  0.76570800  1
  H  H1268  1  0.09081330  0.07785150  0.98226000  1
  H  H1269  1  0.09126400  0.07660050  0.98319200  1
  N  N1270  1  0.08326250  0.09664360  0.96411400  1
  C  C1271  1  0.07489010  0.13839300  0.96853700  1
  C  C1272  1  0.05228250  0.14669400  0.90097100  1
  C  C1273  1  0.05910850  0.16450800  0.94030700  1
  C  C1274  1  0.04126260  0.20630700  0.95365000  1
  O  O1275  1  0.05051220  0.16091700  0.87194500  1
  O  O1276  1  0.05131610  0.16814300  0.87199400  1
  H  H1277  1  0.37320200  0.05853600  0.84528700  1
  H  H1278  1  0.59081300  0.07784990  0.98226000  1
  H  H1279  1  0.59126300  0.07660880  0.98319700  1
  N  N1280  1  0.58326200  0.09664490  0.96411500  1
  C  C1281  1  0.57489000  0.13839400  0.96853700  1
  C  C1282  1  0.55228300  0.14669500  0.90097200  1
  C  C1283  1  0.55910900  0.16450900  0.94030700  1
  C  C1284  1  0.54126200  0.20630800  0.95365000  1
  O  O1285  1  0.55051200  0.16091700  0.87194500  1
  O  O1286  1  0.55131600  0.16814200  0.87199400  1
  O  O1287  1  0.49348500  0.19332700  0.83475000  1
  H  H1288  1  0.87320300  0.05853480  0.84528600  1
  O  O1289  1  0.99348700  0.19332800  0.83475000  1
  H  H1290  1  0.02649120  0.25388300  0.99325800  1
  C  C1291  1  0.04354100  0.22207400  0.98717200  1
  H  H1292  1  0.05390050  0.31457600  0.84900600  1
  H  H1293  1  0.02120870  0.22861000  0.93888600  1
  C  C1294  1  0.00822475  0.22547700  0.84011200  1
  H  H1295  1  0.06428100  0.24458600  0.88934200  1
  H  H1296  1  0.08039700  0.28735500  0.89603200  1
  H  H1297  1  0.02952590  0.29120400  0.89945600  1
  H  H1298  1  0.01083970  0.29740400  0.84802600  1
  C  C1299  1  0.04496390  0.28701200  0.85326300  1
  C  C1300  1  0.05568950  0.27660100  0.88729300  1
  H  H1301  1  0.14490300  0.23333500  0.87036600  1
  H  H1302  1  0.22187600  0.30616000  0.85456600  1
  C  C1303  1  0.19339600  0.29894500  0.85003400  1
  H  H1304  1  0.23046400  0.25909600  0.90291000  1
  H  H1305  1  0.23704400  0.22025100  0.87299200  1
  C  C1306  1  0.14972800  0.25794000  0.85900700  1
  C  C1307  1  0.18528700  0.26952400  0.86714000  1
  N  N1308  1  0.21617200  0.24514800  0.88463100  1
  O  O1309  1  0.48011800  0.20305100  0.83938300  1
  H  H1310  1  0.52648900  0.25388400  0.99325700  1
  C  C1311  1  0.54354100  0.22207400  0.98717200  1
  H  H1312  1  0.52120800  0.22861000  0.93888500  1
  C  C1313  1  0.50822100  0.22547800  0.84011300  1
  H  H1314  1  0.51084100  0.29740300  0.84802600  1
  H  H1315  1  0.55390200  0.31457400  0.84900500  1
  H  H1316  1  0.56428100  0.24458600  0.88934300  1
  H  H1317  1  0.58039700  0.28735500  0.89603200  1
  H  H1318  1  0.52952600  0.29120400  0.89945500  1
  C  C1319  1  0.54496600  0.28701000  0.85326300  1
  C  C1320  1  0.55569000  0.27660100  0.88729400  1
  C  C1321  1  0.69339900  0.29894400  0.85003600  1
  H  H1322  1  0.64490500  0.23333300  0.87036600  1
  H  H1323  1  0.73046500  0.25909600  0.90291000  1
  H  H1324  1  0.73704500  0.22025100  0.87299300  1
  C  C1325  1  0.64973000  0.25793700  0.85900700  1
  C  C1326  1  0.68528800  0.26952200  0.86714100  1
  N  N1327  1  0.71617300  0.24514700  0.88463200  1
  H  H1328  1  0.72187900  0.30615900  0.85456700  1
  O  O1329  1  0.98012000  0.20305100  0.83938300  1
  H  H1330  1  0.09081020  0.57788200  0.98228000  1
  H  H1331  1  0.09126780  0.57656600  0.98317200  1
  N  N1332  1  0.08326110  0.59664300  0.96411500  1
  H  H1333  1  0.37320300  0.55853500  0.84528600  1
  H  H1334  1  0.59080600  0.57791900  0.98230200  1
  H  H1335  1  0.59127300  0.57651800  0.98314300  1
  N  N1336  1  0.58326700  0.59664400  0.96411500  1
  H  H1337  1  0.87320200  0.55853500  0.84528600  1
  C  C1338  1  0.00822077  0.72547900  0.84011200  1
  C  C1339  1  0.07489280  0.63839200  0.96853500  1
  C  C1340  1  0.05228230  0.64669400  0.90097100  1
  H  H1341  1  0.02649130  0.75388100  0.99325900  1
  C  C1342  1  0.04354250  0.72207300  0.98717200  1
  H  H1343  1  0.05390330  0.81457400  0.84900400  1
  C  C1344  1  0.05911010  0.66450700  0.94030600  1
  O  O1345  1  0.05051200  0.66091700  0.87194500  1
  O  O1346  1  0.05131560  0.66814200  0.87199300  1
  H  H1347  1  0.02120860  0.72861000  0.93888700  1
  C  C1348  1  0.04126330  0.70630600  0.95365000  1
  H  H1349  1  0.14490400  0.73333300  0.87036600  1
  H  H1350  1  0.06428100  0.74458600  0.88934200  1
  H  H1351  1  0.08039750  0.78735500  0.89603200  1
  H  H1352  1  0.02952590  0.79120500  0.89945500  1
  H  H1353  1  0.01084250  0.79740300  0.84802600  1
  C  C1354  1  0.04496710  0.78700900  0.85326200  1
  C  C1355  1  0.05569010  0.77660100  0.88729300  1
  C  C1356  1  0.14973000  0.75793800  0.85900700  1
  C  C1357  1  0.19339900  0.79894500  0.85003700  1
  H  H1358  1  0.23046500  0.75909600  0.90291000  1
  H  H1359  1  0.23704400  0.72025000  0.87299300  1
  C  C1360  1  0.18528800  0.76952200  0.86714100  1
  N  N1361  1  0.21617300  0.74514700  0.88463200  1
  H  H1362  1  0.22187900  0.80616000  0.85456700  1
  C  C1363  1  0.57489000  0.63839300  0.96853700  1
  C  C1364  1  0.55228300  0.64669400  0.90097100  1
  H  H1365  1  0.52649300  0.75388100  0.99325900  1
  C  C1366  1  0.54354300  0.72207300  0.98717200  1
  H  H1367  1  0.55390300  0.81457400  0.84900500  1
  C  C1368  1  0.55910900  0.66450700  0.94030700  1
  O  O1369  1  0.55051200  0.66091700  0.87194500  1
  O  O1370  1  0.55131600  0.66814200  0.87199400  1
  O  O1371  1  0.49348600  0.69332800  0.83475100  1
  H  H1372  1  0.52120900  0.72861000  0.93888700  1
  C  C1373  1  0.54126400  0.70630600  0.95365000  1
  H  H1374  1  0.56428100  0.74458600  0.88934300  1
  H  H1375  1  0.52952600  0.79120500  0.89945500  1
  H  H1376  1  0.51084200  0.79740300  0.84802600  1
  C  C1377  1  0.50822100  0.72547800  0.84011300  1
  C  C1378  1  0.54496600  0.78701000  0.85326300  1
  C  C1379  1  0.55569000  0.77660100  0.88729400  1
  O  O1380  1  0.48011800  0.70305100  0.83938300  1
  H  H1381  1  0.64490500  0.73333300  0.87036600  1
  H  H1382  1  0.58039700  0.78735500  0.89603200  1
  C  C1383  1  0.64973000  0.75793700  0.85900600  1
  H  H1384  1  0.72187900  0.80615900  0.85456700  1
  C  C1385  1  0.69339900  0.79894500  0.85003600  1
  H  H1386  1  0.73046500  0.75909600  0.90291000  1
  H  H1387  1  0.73704400  0.72025000  0.87299300  1
  C  C1388  1  0.68528800  0.76952200  0.86714100  1
  N  N1389  1  0.71617300  0.74514700  0.88463200  1
  O  O1390  1  0.98011800  0.70305100  0.83938300  1
  O  O1391  1  0.99348500  0.69332800  0.83475000  1
