# generated using pymatgen
data_Zn2H38C52(N4O5)3
_symmetry_space_group_name_H-M   'P 1'
_cell_length_a   40.87596515
_cell_length_b   40.46288034
_cell_length_c   31.29695806
_cell_angle_alpha   97.65360817
_cell_angle_beta   95.51825856
_cell_angle_gamma   67.15311492
_symmetry_Int_Tables_number   1
_chemical_formula_structural   Zn2H38C52(N4O5)3
_chemical_formula_sum   'Zn36 H684 C936 N216 O270'
_cell_volume   47221.80196544
_cell_formula_units_Z   18
loop_
 _symmetry_equiv_pos_site_id
 _symmetry_equiv_pos_as_xyz
  1  'x, y, z'
loop_
 _atom_site_type_symbol
 _atom_site_label
 _atom_site_symmetry_multiplicity
 _atom_site_fract_x
 _atom_site_fract_y
 _atom_site_fract_z
 _atom_site_occupancy
  H  H0  1  0.10078900  0.01182100  0.17927000  1
  N  N1  1  0.08171330  0.02423250  0.15644400  1
  H  H2  1  0.00359972  0.02321810  0.08199240  1
  C  C3  1  0.01581200  0.05708990  0.17040300  1
  C  C4  1  0.05232110  0.05784210  0.17107500  1
  N  N5  1  0.01359350  0.03806440  0.10291600  1
  H  H6  1  0.09862890  0.02853770  0.13780400  1
  H  H7  1  0.02966540  0.05205960  0.09944530  1
  C  C8  1  0.05623860  0.09010060  0.18566400  1
  H  H9  1  0.07268810  0.05339140  0.00732692  1
  H  H10  1  0.01133750  0.07612750  0.22844100  1
  O  O11  1  0.28132400  0.00464636  0.18560700  1
  Zn  Zn12  1  0.24335900  0.05251820  0.18506000  1
  H  H13  1  0.28561700  0.03140630  0.11961900  1
  N  N14  1  0.28032300  0.05891490  0.17448500  1
  O  O15  1  0.22910900  0.02480180  0.20249700  1
  O  O16  1  0.18448000  0.01200680  0.23236300  1
  H  H17  1  0.10714800  0.05255480  0.23054800  1
  N  N18  1  0.17370600  0.04632910  0.24335900  1
  Zn  Zn19  1  0.20304500  0.09382850  0.18765900  1
  C  C20  1  0.09040200  0.09091590  0.19244700  1
  C  C21  1  0.22453100  0.06724250  0.05935330  1
  O  O22  1  0.21660300  0.07706260  0.10573600  1
  O  O23  1  0.22482800  0.06619640  0.10585000  1
  N  N24  1  0.16182000  0.08414030  0.19280200  1
  C  C25  1  0.22438800  0.06843300  0.00130339  1
  C  C26  1  0.15051900  0.06742200  0.21755000  1
  C  C27  1  0.11540100  0.06890520  0.21571800  1
  C  C28  1  0.25955600  0.00004941  0.20866700  1
  C  C29  1  0.13663700  0.10846300  0.17482600  1
  H  H30  1  0.43412300  0.01182110  0.17927000  1
  N  N31  1  0.41504700  0.02423250  0.15644400  1
  C  C32  1  0.33185800  0.04521540  0.13770700  1
  C  C33  1  0.29795600  0.04368870  0.14030100  1
  H  H34  1  0.43196200  0.02853760  0.13780400  1
  H  H35  1  0.33693400  0.02321830  0.08199270  1
  C  C36  1  0.34914800  0.05709090  0.17040300  1
  C  C37  1  0.38565600  0.05784240  0.17107500  1
  N  N38  1  0.34692900  0.03806380  0.10291600  1
  H  H39  1  0.44048100  0.05255620  0.23054900  1
  H  H40  1  0.36299900  0.05205980  0.09944460  1
  C  C41  1  0.42373700  0.09091570  0.19244800  1
  C  C42  1  0.38957300  0.09010090  0.18566400  1
  H  H43  1  0.40602300  0.05339140  0.00732764  1
  C  C44  1  0.29420600  0.07574770  0.20202700  1
  C  C45  1  0.33034500  0.06966500  0.20362700  1
  N  N46  1  0.27511000  0.08988530  0.23478000  1
  H  H47  1  0.34467200  0.07612770  0.22844200  1
  C  C48  1  0.44873600  0.06890500  0.21571600  1
  O  O49  1  0.61464300  0.00464883  0.18559500  1
  Zn  Zn50  1  0.57668900  0.05252100  0.18505900  1
  H  H51  1  0.61893400  0.03142160  0.11961000  1
  C  C52  1  0.63128200  0.04368950  0.14029800  1
  N  N53  1  0.61365500  0.05890560  0.17449000  1
  O  O54  1  0.56243700  0.02480320  0.20250100  1
  O  O55  1  0.51781100  0.01200280  0.23236300  1
  N  N56  1  0.50703900  0.04632460  0.24336000  1
  Zn  Zn57  1  0.53633700  0.09389850  0.18767600  1
  C  C58  1  0.55795800  0.06723260  0.05934980  1
  O  O59  1  0.55008700  0.07694450  0.10577300  1
  O  O60  1  0.55819400  0.06622670  0.10585200  1
  N  N61  1  0.49516700  0.08412260  0.19278200  1
  C  C62  1  0.55773400  0.06845160  0.00130564  1
  C  C63  1  0.62753600  0.07574170  0.20202800  1
  C  C64  1  0.48385900  0.06741620  0.21754400  1
  N  N65  1  0.60843700  0.08988190  0.23478100  1
  C  C66  1  0.59288500  0.00005019  0.20866600  1
  C  C67  1  0.46997800  0.10845400  0.17482100  1
  H  H68  1  0.76745600  0.01182120  0.17927000  1
  N  N69  1  0.74837900  0.02423250  0.15644400  1
  C  C70  1  0.66518500  0.04521500  0.13770500  1
  H  H71  1  0.76529500  0.02853790  0.13780500  1
  H  H72  1  0.67026600  0.02321780  0.08199180  1
  C  C73  1  0.68247700  0.05708920  0.17040200  1
  C  C74  1  0.71898600  0.05784180  0.17107500  1
  N  N75  1  0.68025900  0.03806480  0.10291600  1
  H  H76  1  0.77381300  0.05255540  0.23055000  1
  H  H77  1  0.69633200  0.05205950  0.09944560  1
  C  C78  1  0.75706800  0.09091540  0.19244700  1
  C  C79  1  0.72290400  0.09010050  0.18566400  1
  H  H80  1  0.73935400  0.05339120  0.00732660  1
  C  C81  1  0.66367300  0.06966370  0.20362600  1
  H  H82  1  0.67800100  0.07612750  0.22843900  1
  C  C83  1  0.81719400  0.06741760  0.21754300  1
  C  C84  1  0.78206800  0.06890650  0.21571700  1
  C  C85  1  0.80331500  0.10845200  0.17482500  1
  O  O86  1  0.85114700  0.01200590  0.23236400  1
  N  N87  1  0.84036800  0.04632740  0.24336100  1
  O  O88  1  0.94797300  0.00467007  0.18561000  1
  Zn  Zn89  1  0.91000700  0.05254500  0.18504800  1
  H  H90  1  0.95226800  0.03142070  0.11961400  1
  C  C91  1  0.99852100  0.04521440  0.13770600  1
  C  C92  1  0.96461700  0.04369080  0.14030200  1
  N  N93  1  0.94698900  0.05891640  0.17449500  1
  O  O94  1  0.89577500  0.02481170  0.20250300  1
  Zn  Zn95  1  0.86959200  0.09403140  0.18775900  1
  C  C96  1  0.89127400  0.06724560  0.05935030  1
  O  O97  1  0.88336700  0.07701790  0.10577200  1
  O  O98  1  0.89157500  0.06622600  0.10585700  1
  N  N99  1  0.82850900  0.08411560  0.19277200  1
  C  C100  1  0.89107900  0.06842620  0.00129995  1
  C  C101  1  0.96087200  0.07574540  0.20203500  1
  C  C102  1  0.99701000  0.06966350  0.20362900  1
  N  N103  1  0.94176900  0.08988220  0.23478900  1
  C  C104  1  0.92621800  0.00005555  0.20867000  1
  H  H105  1  0.00634625  0.13007900  0.16917100  1
  N  N106  1  0.02640700  0.12513100  0.19231700  1
  H  H107  1  0.06912890  0.11874400  0.12977400  1
  H  H108  1  0.01281750  0.12772300  0.21567200  1
  H  H109  1  0.18690600  0.16556200  0.09345990  1
  C  C110  1  0.18982900  0.15043800  0.16451700  1
  C  C111  1  0.18879600  0.18300800  0.15384500  1
  C  C112  1  0.19663900  0.20821700  0.18202800  1
  C  C113  1  0.19447500  0.18414300  0.11510900  1
  O  O114  1  0.21516000  0.12018600  0.15353700  1
  O  O115  1  0.17758300  0.14673300  0.19830500  1
  H  H116  1  0.14700000  0.11745400  0.15428000  1
  H  H117  1  0.08750620  0.15300000  0.14238600  1
  C  C118  1  0.10099300  0.11379100  0.17577600  1
  N  N119  1  0.07946460  0.13354600  0.14930500  1
  C  C120  1  0.21044700  0.20755700  0.10700900  1
  H  H121  1  0.21387600  0.20789700  0.07993360  1
  H  H122  1  0.19305200  0.20509600  0.20926700  1
  O  O123  1  0.24317600  0.11462200  0.23320200  1
  H  H124  1  0.21056100  0.23898000  0.24639400  1
  O  O125  1  0.31014600  0.12605700  0.00147441  1
  H  H126  1  0.33967900  0.13007900  0.16917100  1
  H  H127  1  0.40246300  0.11874500  0.12977500  1
  N  N128  1  0.35974000  0.12513100  0.19231700  1
  N  N129  1  0.41280000  0.13354600  0.14930700  1
  C  C130  1  0.43433000  0.11378800  0.17577800  1
  C  C131  1  0.21546200  0.23033600  0.17393200  1
  H  H132  1  0.42084000  0.15300000  0.14238600  1
  H  H133  1  0.26112300  0.22844500  0.08350840  1
  C  C134  1  0.22219000  0.23009400  0.13620000  1
  H  H135  1  0.34615100  0.12772300  0.21567300  1
  C  C136  1  0.22384100  0.25366800  0.23956200  1
  C  C137  1  0.22920100  0.25206000  0.20267300  1
  C  C138  1  0.24756100  0.27437500  0.19272200  1
  C  C139  1  0.23856000  0.25399300  0.12832800  1
  C  C140  1  0.24971400  0.27548100  0.15837400  1
  N  N141  1  0.24453300  0.25486000  0.09211300  1
  H  H142  1  0.52023900  0.16556300  0.09345890  1
  C  C143  1  0.52315100  0.15044200  0.16450600  1
  C  C144  1  0.54378000  0.20755800  0.10700900  1
  C  C145  1  0.52212500  0.18301100  0.15384200  1
  C  C146  1  0.52997300  0.20821600  0.18202800  1
  C  C147  1  0.52780700  0.18414500  0.11510800  1
  O  O148  1  0.54849000  0.12019800  0.15353400  1
  O  O149  1  0.51091800  0.14673400  0.19830000  1
  H  H150  1  0.48033300  0.11745200  0.15427900  1
  H  H151  1  0.54721000  0.20789700  0.07993370  1
  C  C152  1  0.54879600  0.23033500  0.17393300  1
  C  C153  1  0.55552300  0.23009400  0.13620000  1
  H  H154  1  0.52638500  0.20509500  0.20926700  1
  H  H155  1  0.54389500  0.23898000  0.24639400  1
  O  O156  1  0.57650600  0.11462000  0.23320500  1
  C  C157  1  0.55717400  0.25366800  0.23956200  1
  C  C158  1  0.56253500  0.25206000  0.20267300  1
  O  O159  1  0.64347900  0.12605600  0.00147329  1
  H  H160  1  0.67301200  0.13007900  0.16917100  1
  H  H161  1  0.73579600  0.11874400  0.12977400  1
  H  H162  1  0.75417400  0.15299900  0.14238600  1
  C  C163  1  0.76766200  0.11378900  0.17578000  1
  N  N164  1  0.69307300  0.12513100  0.19231700  1
  N  N165  1  0.74613100  0.13354600  0.14930700  1
  H  H166  1  0.59445600  0.22844500  0.08350840  1
  H  H167  1  0.67948400  0.12772300  0.21567300  1
  C  C168  1  0.58089400  0.27437500  0.19272200  1
  C  C169  1  0.57189400  0.25399300  0.12832800  1
  C  C170  1  0.58304800  0.27548100  0.15837400  1
  N  N171  1  0.57786600  0.25486000  0.09211300  1
  H  H172  1  0.85357300  0.16556300  0.09345940  1
  C  C173  1  0.85648500  0.15043900  0.16449800  1
  C  C174  1  0.87711400  0.20755700  0.10701000  1
  C  C175  1  0.85545700  0.18301100  0.15384400  1
  C  C176  1  0.86330600  0.20821600  0.18202900  1
  C  C177  1  0.86114100  0.18414500  0.11511000  1
  O  O178  1  0.88183400  0.12020400  0.15353600  1
  O  O179  1  0.84425900  0.14672700  0.19829700  1
  H  H180  1  0.81366400  0.11745200  0.15428100  1
  H  H181  1  0.88054300  0.20789600  0.07993420  1
  C  C182  1  0.88212900  0.23033600  0.17393300  1
  H  H183  1  0.92778900  0.22844500  0.08350840  1
  C  C184  1  0.88885600  0.23009400  0.13620100  1
  H  H185  1  0.85971800  0.20509500  0.20926800  1
  H  H186  1  0.87722800  0.23898000  0.24639400  1
  O  O187  1  0.90983500  0.11460900  0.23321400  1
  C  C188  1  0.89050700  0.25366800  0.23956200  1
  C  C189  1  0.89586800  0.25206000  0.20267300  1
  C  C190  1  0.91422900  0.27437400  0.19272300  1
  C  C191  1  0.90522700  0.25399300  0.12832800  1
  C  C192  1  0.91638100  0.27548200  0.15837400  1
  N  N193  1  0.91119900  0.25486000  0.09211310  1
  O  O194  1  0.97681300  0.12605500  0.00147318  1
  H  H195  1  0.08184240  0.30528500  0.01246680  1
  H  H196  1  0.10079000  0.34515400  0.17927000  1
  H  H197  1  0.09863000  0.36187100  0.13780400  1
  H  H198  1  0.02966590  0.38539300  0.09944340  1
  H  H199  1  0.00359932  0.35655100  0.08199200  1
  C  C200  1  0.01581880  0.39041800  0.17039300  1
  C  C201  1  0.09040290  0.42425000  0.19244800  1
  C  C202  1  0.05232380  0.39117400  0.17107200  1
  C  C203  1  0.05623950  0.42343400  0.18566400  1
  N  N204  1  0.08171530  0.35756500  0.15644400  1
  N  N205  1  0.01359480  0.37139600  0.10291300  1
  H  H206  1  0.07268960  0.38672500  0.00732762  1
  C  C207  1  0.10099600  0.44712300  0.17577800  1
  H  H208  1  0.10714700  0.38588900  0.23054800  1
  H  H209  1  0.01134370  0.40945900  0.22843400  1
  C  C210  1  0.11540200  0.40223900  0.21571700  1
  C  C211  1  0.15052300  0.40075200  0.21754600  1
  H  H212  1  0.00634616  0.46341200  0.16917100  1
  H  H213  1  0.06912910  0.45207800  0.12977400  1
  N  N214  1  0.02640710  0.45846500  0.19231700  1
  N  N215  1  0.07946550  0.46687900  0.14930600  1
  H  H216  1  0.01281760  0.46105700  0.21567300  1
  H  H217  1  0.26222200  0.29193800  0.15309800  1
  H  H218  1  0.25061200  0.28447800  0.05688680  1
  H  H219  1  0.27784300  0.28444900  0.09708070  1
  H  H220  1  0.23290800  0.31064300  0.09955380  1
  C  C221  1  0.25232200  0.28647400  0.08589860  1
  Zn  Zn222  1  0.24335400  0.38588700  0.18506600  1
  H  H223  1  0.28560400  0.36475300  0.11961300  1
  C  C224  1  0.29795100  0.37702400  0.14030100  1
  N  N225  1  0.28032500  0.39225200  0.17449200  1
  O  O226  1  0.22497100  0.39949200  0.10585200  1
  Zn  Zn227  1  0.20301900  0.42721500  0.18767800  1
  C  C228  1  0.22444300  0.40065300  0.05935130  1
  O  O229  1  0.21663000  0.41034600  0.10575600  1
  O  O230  1  0.28130600  0.33800300  0.18561500  1
  N  N231  1  0.16182800  0.41746600  0.19279400  1
  C  C232  1  0.33185300  0.37854700  0.13770500  1
  H  H233  1  0.33693300  0.35655100  0.08199150  1
  C  C234  1  0.13664300  0.44179100  0.17482300  1
  C  C235  1  0.22446500  0.40175900  0.00130772  1
  C  C236  1  0.29420700  0.40907900  0.20203300  1
  C  C237  1  0.25955000  0.33338800  0.20866900  1
  C  C238  1  0.26039100  0.29782700  0.22006000  1
  O  O239  1  0.22911000  0.35814800  0.20250200  1
  N  N240  1  0.27510400  0.42321700  0.23478400  1
  N  N241  1  0.17370200  0.37966000  0.24335900  1
  O  O242  1  0.18447900  0.34533800  0.23236200  1
  C  C243  1  0.33034200  0.40299700  0.20362800  1
  O  O244  1  0.24317200  0.44795400  0.23320500  1
  O  O245  1  0.21516100  0.45352600  0.15353500  1
  H  H246  1  0.14699900  0.45078600  0.15427900  1
  H  H247  1  0.41517400  0.30528600  0.01246600  1
  H  H248  1  0.43412200  0.34515400  0.17926900  1
  H  H249  1  0.43196200  0.36187100  0.13780400  1
  H  H250  1  0.36299800  0.38539300  0.09944550  1
  C  C251  1  0.34914400  0.39042200  0.17040200  1
  C  C252  1  0.42373000  0.42425000  0.19244700  1
  C  C253  1  0.38565300  0.39117500  0.17107500  1
  C  C254  1  0.38956900  0.42343400  0.18566400  1
  N  N255  1  0.41504600  0.35756600  0.15644400  1
  N  N256  1  0.34692600  0.37139800  0.10291500  1
  H  H257  1  0.40602100  0.38672500  0.00732662  1
  N  N258  1  0.49515800  0.41745900  0.19278700  1
  C  C259  1  0.43432000  0.44712700  0.17577800  1
  C  C260  1  0.46996800  0.44179600  0.17482700  1
  H  H261  1  0.44047800  0.38588700  0.23055000  1
  H  H262  1  0.34466900  0.40946100  0.22843900  1
  C  C263  1  0.48384600  0.40075700  0.21754900  1
  C  C264  1  0.44872800  0.40224100  0.21572000  1
  N  N265  1  0.50703200  0.37966500  0.24335700  1
  O  O266  1  0.51780900  0.34534200  0.23236500  1
  H  H267  1  0.33967900  0.46341200  0.16917100  1
  H  H268  1  0.40246100  0.45207700  0.12977200  1
  N  N269  1  0.35973900  0.45846400  0.19231700  1
  N  N270  1  0.41279300  0.46688200  0.14930400  1
  H  H271  1  0.48032800  0.45078600  0.15427900  1
  H  H272  1  0.34615000  0.46105700  0.21567300  1
  H  H273  1  0.59555600  0.29193700  0.15309700  1
  H  H274  1  0.58394500  0.28447800  0.05688680  1
  H  H275  1  0.61117600  0.28444900  0.09708060  1
  H  H276  1  0.56624200  0.31064300  0.09955370  1
  C  C277  1  0.58565500  0.28647400  0.08589850  1
  Zn  Zn278  1  0.57668100  0.38587900  0.18507100  1
  H  H279  1  0.61892100  0.36476400  0.11960600  1
  C  C280  1  0.66518400  0.37854600  0.13770300  1
  C  C281  1  0.63127700  0.37702500  0.14029600  1
  N  N282  1  0.61365100  0.39225000  0.17448800  1
  O  O283  1  0.55824700  0.39957400  0.10586400  1
  H  H284  1  0.67026600  0.35655100  0.08199170  1
  C  C285  1  0.68247500  0.39041900  0.17040000  1
  N  N286  1  0.68025900  0.37139800  0.10291500  1
  Zn  Zn287  1  0.53641900  0.42711500  0.18764300  1
  C  C288  1  0.55794200  0.40058500  0.05934930  1
  O  O289  1  0.55004600  0.41032500  0.10574600  1
  O  O290  1  0.61462800  0.33800500  0.18559600  1
  H  H291  1  0.69633200  0.38539300  0.09944510  1
  C  C292  1  0.55777400  0.40174000  0.00130215  1
  C  C293  1  0.62753700  0.40907700  0.20202600  1
  C  C294  1  0.66367400  0.40299500  0.20362400  1
  C  C295  1  0.59287800  0.33339100  0.20866400  1
  C  C296  1  0.59372500  0.29782800  0.22006000  1
  O  O297  1  0.56243100  0.35814400  0.20249500  1
  N  N298  1  0.60844100  0.42322000  0.23477900  1
  H  H299  1  0.67800200  0.40946000  0.22843800  1
  O  O300  1  0.57650500  0.44795200  0.23320000  1
  O  O301  1  0.54848600  0.45353300  0.15356100  1
  H  H302  1  0.89957500  0.31064300  0.09955370  1
  H  H303  1  0.74850800  0.30528600  0.01246610  1
  H  H304  1  0.76745500  0.34515400  0.17926900  1
  H  H305  1  0.76529500  0.36187200  0.13780500  1
  C  C306  1  0.75703700  0.42425000  0.19245400  1
  C  C307  1  0.71898100  0.39117200  0.17107200  1
  C  C308  1  0.72289000  0.42343100  0.18566300  1
  N  N309  1  0.74837900  0.35756500  0.15644300  1
  H  H310  1  0.73935500  0.38672500  0.00732670  1
  Zn  Zn311  1  0.86927500  0.42722900  0.18769500  1
  N  N312  1  0.82832500  0.41763200  0.19300600  1
  C  C313  1  0.76760000  0.44714800  0.17578000  1
  C  C314  1  0.80320900  0.44184700  0.17485300  1
  H  H315  1  0.77380800  0.38586400  0.23056000  1
  C  C316  1  0.81712400  0.40082000  0.21763400  1
  C  C317  1  0.78203800  0.40223700  0.21575400  1
  N  N318  1  0.84041700  0.37976300  0.24337200  1
  O  O319  1  0.85113400  0.34543200  0.23241900  1
  O  O320  1  0.89575900  0.35808600  0.20240100  1
  H  H321  1  0.81362100  0.45078400  0.15427900  1
  H  H322  1  0.67300800  0.46341400  0.16916900  1
  H  H323  1  0.73578600  0.45207100  0.12975600  1
  N  N324  1  0.69306600  0.45846300  0.19231600  1
  N  N325  1  0.74609300  0.46689300  0.14929000  1
  H  H326  1  0.67948000  0.46105800  0.21567400  1
  H  H327  1  0.91727800  0.28447800  0.05688690  1
  C  C328  1  0.91898800  0.28647400  0.08589860  1
  H  H329  1  0.92888900  0.29193900  0.15309700  1
  H  H330  1  0.94451000  0.28444900  0.09708070  1
  Zn  Zn331  1  0.90994100  0.38587300  0.18503700  1
  H  H332  1  0.95224800  0.36476700  0.11960900  1
  C  C333  1  0.99852200  0.37854200  0.13770000  1
  C  C334  1  0.96460400  0.37703100  0.14029300  1
  N  N335  1  0.94696200  0.39227600  0.17447000  1
  O  O336  1  0.89141400  0.39962400  0.10586600  1
  C  C337  1  0.89119900  0.40061700  0.05937580  1
  O  O338  1  0.88316800  0.41037300  0.10575700  1
  O  O339  1  0.94795700  0.33802500  0.18559600  1
  C  C340  1  0.89105600  0.40179400  0.00131955  1
  C  C341  1  0.96088900  0.40907900  0.20200000  1
  C  C342  1  0.99702500  0.40298700  0.20360700  1
  C  C343  1  0.92706900  0.29782100  0.22005900  1
  C  C344  1  0.92621700  0.33338500  0.20865800  1
  N  N345  1  0.94183300  0.42326600  0.23472500  1
  O  O346  1  0.90989500  0.44804200  0.23308500  1
  O  O347  1  0.88175400  0.45345200  0.15364600  1
  H  H348  1  0.08750650  0.48633300  0.14238600  1
  H  H349  1  0.18690600  0.49889600  0.09345940  1
  H  H350  1  0.21387700  0.54123000  0.07993350  1
  C  C351  1  0.18981900  0.48377300  0.16451100  1
  C  C352  1  0.21044700  0.54089100  0.10700900  1
  C  C353  1  0.18879000  0.51634400  0.15384400  1
  C  C354  1  0.21546300  0.56366900  0.17393200  1
  C  C355  1  0.22219000  0.56342700  0.13620000  1
  C  C356  1  0.23856000  0.58732600  0.12832700  1
  C  C357  1  0.19663900  0.54155000  0.18202800  1
  C  C358  1  0.19447300  0.51747800  0.11510900  1
  O  O359  1  0.17758600  0.48006800  0.19831100  1
  H  H360  1  0.26112300  0.56177800  0.08350830  1
  C  C361  1  0.24756000  0.60770900  0.19272200  1
  N  N362  1  0.24453300  0.58819300  0.09211270  1
  H  H363  1  0.19305200  0.53842900  0.20926700  1
  H  H364  1  0.21056200  0.57231400  0.24639400  1
  C  C365  1  0.22384100  0.58700100  0.23956200  1
  C  C366  1  0.22920100  0.58539400  0.20267300  1
  C  C367  1  0.24971400  0.60881400  0.15837400  1
  H  H368  1  0.23290900  0.64397600  0.09955360  1
  H  H369  1  0.08184090  0.63861900  0.01246610  1
  O  O370  1  0.31014600  0.45938900  0.00147348  1
  H  H371  1  0.42083800  0.48633400  0.14238500  1
  H  H372  1  0.26222200  0.62527100  0.15309800  1
  H  H373  1  0.27784300  0.61778200  0.09708050  1
  H  H374  1  0.25061200  0.61781100  0.05688660  1
  C  C375  1  0.25232200  0.61980700  0.08589830  1
  C  C376  1  0.26039200  0.63116100  0.22006000  1
  H  H377  1  0.52023900  0.49889500  0.09346180  1
  H  H378  1  0.54720900  0.54123000  0.07993400  1
  H  H379  1  0.59445600  0.56177800  0.08350830  1
  C  C380  1  0.52314900  0.48377500  0.16452000  1
  C  C381  1  0.54378000  0.54089000  0.10700900  1
  C  C382  1  0.52212600  0.51634400  0.15385000  1
  C  C383  1  0.58089400  0.60770800  0.19272200  1
  C  C384  1  0.54879600  0.56366900  0.17393300  1
  C  C385  1  0.55552300  0.56342700  0.13620000  1
  C  C386  1  0.57189300  0.58732500  0.12832700  1
  C  C387  1  0.58304700  0.60881300  0.15837300  1
  C  C388  1  0.52997300  0.54155100  0.18203000  1
  C  C389  1  0.52780900  0.51747500  0.11511200  1
  N  N390  1  0.57786600  0.58819300  0.09211260  1
  O  O391  1  0.51091600  0.48004200  0.19829800  1
  O  O392  1  0.64347900  0.45938800  0.00147310  1
  H  H393  1  0.59555500  0.62526900  0.15309700  1
  H  H394  1  0.58394500  0.61781100  0.05688660  1
  C  C395  1  0.58565500  0.61980700  0.08589830  1
  H  H396  1  0.52638500  0.53843100  0.20926800  1
  H  H397  1  0.54389500  0.57231400  0.24639400  1
  C  C398  1  0.55717400  0.58700100  0.23956200  1
  C  C399  1  0.56253500  0.58539400  0.20267300  1
  C  C400  1  0.59372600  0.63115900  0.22006000  1
  H  H401  1  0.56624200  0.64397600  0.09955360  1
  H  H402  1  0.41517400  0.63861900  0.01246590  1
  O  O403  1  0.84405100  0.48014100  0.19841700  1
  H  H404  1  0.75415600  0.48633900  0.14237500  1
  H  H405  1  0.61117600  0.61778200  0.09708050  1
  H  H406  1  0.74850800  0.63861900  0.01246600  1
  C  C407  1  0.85645800  0.48377300  0.16463000  1
  H  H408  1  0.85357400  0.49888500  0.09347660  1
  H  H409  1  0.88053900  0.54122900  0.07993480  1
  H  H410  1  0.92779000  0.56177800  0.08350820  1
  C  C411  1  0.87711500  0.54088300  0.10701200  1
  C  C412  1  0.85548200  0.51632200  0.15387900  1
  C  C413  1  0.91422700  0.60771100  0.19272100  1
  C  C414  1  0.88213000  0.56367000  0.17393200  1
  C  C415  1  0.88885700  0.56342500  0.13619900  1
  C  C416  1  0.90522600  0.58732500  0.12832600  1
  C  C417  1  0.91638100  0.60881400  0.15837300  1
  C  C418  1  0.86330700  0.54155500  0.18203400  1
  C  C419  1  0.86115900  0.51745200  0.11512700  1
  N  N420  1  0.91119900  0.58819300  0.09211210  1
  O  O421  1  0.97681300  0.45938800  0.00147295  1
  H  H422  1  0.92889100  0.62527000  0.15309700  1
  H  H423  1  0.94450900  0.61778200  0.09708020  1
  H  H424  1  0.91727800  0.61781100  0.05688660  1
  C  C425  1  0.91898800  0.61980700  0.08589810  1
  H  H426  1  0.85971900  0.53844300  0.20927200  1
  H  H427  1  0.87722900  0.57231600  0.24639600  1
  C  C428  1  0.89050800  0.58700300  0.23956200  1
  C  C429  1  0.89586800  0.58539500  0.20267300  1
  C  C430  1  0.92705200  0.63117400  0.22005300  1
  H  H431  1  0.89957500  0.64397600  0.09955360  1
  H  H432  1  0.00360026  0.68988400  0.08198970  1
  C  C433  1  0.01581220  0.72375400  0.17039900  1
  N  N434  1  0.01359310  0.70473100  0.10291300  1
  H  H435  1  0.01133550  0.74279400  0.22843700  1
  H  H436  1  0.14699800  0.78411900  0.15427900  1
  H  H437  1  0.00634557  0.79674600  0.16917100  1
  H  H438  1  0.10078900  0.67848800  0.17927000  1
  H  H439  1  0.09862880  0.69520400  0.13780400  1
  H  H440  1  0.02966500  0.71872700  0.09944460  1
  H  H441  1  0.06912910  0.78541100  0.12977500  1
  H  H442  1  0.08750670  0.81966600  0.14238600  1
  C  C443  1  0.09040280  0.75758200  0.19244800  1
  C  C444  1  0.10099700  0.78045400  0.17577800  1
  C  C445  1  0.13664500  0.77512100  0.17482000  1
  C  C446  1  0.05232050  0.72450800  0.17107400  1
  C  C447  1  0.05623800  0.75676700  0.18566400  1
  N  N448  1  0.02640630  0.79179700  0.19231700  1
  N  N449  1  0.08171330  0.69089900  0.15644400  1
  N  N450  1  0.07946540  0.80021200  0.14930700  1
  H  H451  1  0.07268800  0.72005800  0.00732677  1
  N  N452  1  0.16183500  0.75080300  0.19279700  1
  H  H453  1  0.10714800  0.71922300  0.23054900  1
  H  H454  1  0.01281690  0.79439000  0.21567300  1
  C  C455  1  0.15052600  0.73408500  0.21754300  1
  C  C456  1  0.11540400  0.73557200  0.21571600  1
  N  N457  1  0.17370100  0.71299500  0.24336000  1
  O  O458  1  0.18448100  0.67867300  0.23236500  1
  Zn  Zn459  1  0.24333800  0.71922500  0.18505100  1
  Zn  Zn460  1  0.20306200  0.76053100  0.18772300  1
  C  C461  1  0.18981600  0.81711200  0.16451000  1
  O  O462  1  0.21516600  0.78686600  0.15354000  1
  H  H463  1  0.28559800  0.69809700  0.11961100  1
  C  C464  1  0.33185200  0.71188200  0.13770500  1
  C  C465  1  0.29794800  0.71036100  0.14030200  1
  N  N466  1  0.28032300  0.72558400  0.17449700  1
  C  C467  1  0.22447900  0.73397100  0.05938570  1
  O  O468  1  0.21651900  0.74385300  0.10573600  1
  O  O469  1  0.22501300  0.73280500  0.10585200  1
  O  O470  1  0.31014600  0.79272200  0.00147314  1
  H  H471  1  0.33967900  0.79674500  0.16917100  1
  H  H472  1  0.36299800  0.71872600  0.09944490  1
  H  H473  1  0.33693300  0.68988400  0.08199040  1
  C  C474  1  0.34914400  0.72375500  0.17040200  1
  N  N475  1  0.34692500  0.70473200  0.10291500  1
  O  O476  1  0.17757600  0.81342700  0.19831900  1
  O  O477  1  0.28130300  0.67134100  0.18561300  1
  C  C478  1  0.22448100  0.73509200  0.00131100  1
  C  C479  1  0.38565300  0.72450800  0.17107400  1
  N  N480  1  0.35974000  0.79179700  0.19231700  1
  C  C481  1  0.29420600  0.74241000  0.20203800  1
  C  C482  1  0.33034200  0.73632900  0.20362900  1
  C  C483  1  0.25955100  0.66672200  0.20866900  1
  O  O484  1  0.22911100  0.69147900  0.20250000  1
  N  N485  1  0.27510000  0.75655100  0.23478900  1
  O  O486  1  0.24316600  0.78128300  0.23321000  1
  H  H487  1  0.34467000  0.74279400  0.22843900  1
  H  H488  1  0.34615100  0.79439000  0.21567300  1
  Zn  Zn489  1  0.53638700  0.76051900  0.18766800  1
  C  C490  1  0.52314100  0.81711400  0.16450800  1
  H  H491  1  0.48033200  0.78411900  0.15427800  1
  H  H492  1  0.43412200  0.67848800  0.17927000  1
  H  H493  1  0.43196200  0.69520400  0.13780400  1
  H  H494  1  0.40246200  0.78541100  0.12977400  1
  H  H495  1  0.42084000  0.81966700  0.14238600  1
  C  C496  1  0.42373400  0.75758200  0.19244700  1
  C  C497  1  0.43432800  0.78045600  0.17577800  1
  C  C498  1  0.46997700  0.77512200  0.17482200  1
  C  C499  1  0.38957100  0.75676700  0.18566400  1
  N  N500  1  0.41504700  0.69089900  0.15644400  1
  N  N501  1  0.41279700  0.80021300  0.14930600  1
  H  H502  1  0.40602100  0.72005800  0.00732667  1
  O  O503  1  0.55002900  0.74365000  0.10575400  1
  O  O504  1  0.51091300  0.81339400  0.19829800  1
  N  N505  1  0.49516800  0.75079000  0.19278600  1
  C  C506  1  0.55787000  0.73394600  0.05935970  1
  O  O507  1  0.55830400  0.73286000  0.10587000  1
  O  O508  1  0.56243500  0.69147300  0.20250400  1
  H  H509  1  0.44048000  0.71922200  0.23054900  1
  C  C510  1  0.48385600  0.73408400  0.21754500  1
  C  C511  1  0.44873400  0.73557200  0.21571600  1
  N  N512  1  0.50703500  0.71299200  0.24335900  1
  O  O513  1  0.51781100  0.67867000  0.23236200  1
  C  C514  1  0.59288100  0.66671900  0.20866600  1
  O  O515  1  0.54848200  0.78687200  0.15354700  1
  Zn  Zn516  1  0.57668500  0.71920500  0.18507000  1
  H  H517  1  0.61891900  0.69810300  0.11960200  1
  C  C518  1  0.66518300  0.71188100  0.13770300  1
  C  C519  1  0.63127600  0.71035900  0.14029600  1
  N  N520  1  0.61365200  0.72557500  0.17449000  1
  O  O521  1  0.64348000  0.79272200  0.00147357  1
  H  H522  1  0.67301200  0.79674600  0.16917000  1
  H  H523  1  0.76745600  0.67848800  0.17926900  1
  H  H524  1  0.69633100  0.71872600  0.09944520  1
  H  H525  1  0.67026600  0.68988400  0.08199050  1
  C  C526  1  0.68247600  0.72375400  0.17040000  1
  C  C527  1  0.71898500  0.72450700  0.17107400  1
  C  C528  1  0.72290200  0.75676600  0.18566500  1
  N  N529  1  0.69307200  0.79179700  0.19231700  1
  N  N530  1  0.74837900  0.69089900  0.15644400  1
  N  N531  1  0.68025800  0.70473200  0.10291400  1
  O  O532  1  0.61463200  0.67132600  0.18559400  1
  C  C533  1  0.55780900  0.73505700  0.00131006  1
  H  H534  1  0.73935400  0.72005800  0.00732673  1
  C  C535  1  0.62753500  0.74240600  0.20202700  1
  C  C536  1  0.66367200  0.73632900  0.20362300  1
  N  N537  1  0.60843800  0.75654700  0.23477800  1
  O  O538  1  0.57650700  0.78128600  0.23320300  1
  H  H539  1  0.67800000  0.74279400  0.22843600  1
  H  H540  1  0.67948300  0.79439000  0.21567300  1
  Zn  Zn541  1  0.90992600  0.71941300  0.18511700  1
  Zn  Zn542  1  0.86969300  0.76083100  0.18760700  1
  C  C543  1  0.85636800  0.81726900  0.16439800  1
  O  O544  1  0.88166000  0.78706100  0.15347300  1
  H  H545  1  0.81364700  0.78413000  0.15426100  1
  H  H546  1  0.76529500  0.69520400  0.13780400  1
  H  H547  1  0.73579200  0.78540900  0.12976800  1
  H  H548  1  0.75416500  0.81967000  0.14238200  1
  C  C549  1  0.75706300  0.75758400  0.19244600  1
  C  C550  1  0.76764600  0.78046200  0.17577000  1
  C  C551  1  0.80328200  0.77515700  0.17481700  1
  N  N552  1  0.74611600  0.80021800  0.14930100  1
  C  C553  1  0.89068700  0.73464900  0.05931410  1
  O  O554  1  0.88616500  0.73868000  0.10649700  1
  O  O555  1  0.89078200  0.73345100  0.10580500  1
  O  O556  1  0.84402200  0.81366800  0.19805400  1
  O  O557  1  0.94789900  0.67142000  0.18557400  1
  N  N558  1  0.82848300  0.75091600  0.19286300  1
  C  C559  1  0.89088000  0.73598600  0.00138747  1
  C  C560  1  0.92618700  0.66675800  0.20865100  1
  O  O561  1  0.89574800  0.69153800  0.20250700  1
  H  H562  1  0.77381800  0.71921900  0.23054600  1
  C  C563  1  0.81719300  0.73411100  0.21754200  1
  C  C564  1  0.78207200  0.73557200  0.21570600  1
  N  N565  1  0.84037800  0.71301000  0.24335400  1
  O  O566  1  0.90985300  0.78130500  0.23318800  1
  O  O567  1  0.85114400  0.67868600  0.23236200  1
  H  H568  1  0.95225400  0.69810100  0.11959800  1
  C  C569  1  0.99852200  0.71187500  0.13770200  1
  C  C570  1  0.96461900  0.71035100  0.14029400  1
  N  N571  1  0.94698600  0.72559300  0.17447500  1
  O  O572  1  0.97681400  0.79272300  0.00147472  1
  C  C573  1  0.96087800  0.74240500  0.20202400  1
  C  C574  1  0.99701100  0.73632600  0.20362200  1
  N  N575  1  0.94178000  0.75655200  0.23477300  1
  H  H576  1  0.08184120  0.97195200  0.01246620  1
  H  H577  1  0.18690600  0.83222900  0.09345930  1
  H  H578  1  0.21387600  0.87456300  0.07993420  1
  H  H579  1  0.26222200  0.95860400  0.15309800  1
  H  H580  1  0.26112300  0.89511200  0.08350840  1
  H  H581  1  0.25061200  0.95114400  0.05688690  1
  H  H582  1  0.27784300  0.95111600  0.09708080  1
  H  H583  1  0.23290900  0.97730900  0.09955380  1
  C  C584  1  0.21044700  0.87422400  0.10700900  1
  C  C585  1  0.18879100  0.84967800  0.15384100  1
  C  C586  1  0.24756000  0.94104200  0.19272300  1
  C  C587  1  0.21546300  0.89700200  0.17393300  1
  C  C588  1  0.22218900  0.89676100  0.13620100  1
  C  C589  1  0.23856000  0.92065900  0.12832800  1
  C  C590  1  0.24971400  0.94214800  0.15837400  1
  C  C591  1  0.19664000  0.87488200  0.18202800  1
  C  C592  1  0.19447400  0.85081100  0.11510800  1
  C  C593  1  0.25232200  0.95314000  0.08589870  1
  N  N594  1  0.24453300  0.92152700  0.09211310  1
  H  H595  1  0.19305200  0.87176100  0.20926700  1
  H  H596  1  0.21056100  0.90564700  0.24639400  1
  C  C597  1  0.22384100  0.92033400  0.23956200  1
  C  C598  1  0.22920100  0.91872700  0.20267300  1
  C  C599  1  0.26039200  0.96449300  0.22006200  1
  H  H600  1  0.41517500  0.97195200  0.01246670  1
  H  H601  1  0.52023900  0.83223000  0.09345900  1
  C  C602  1  0.52212100  0.84968200  0.15384300  1
  H  H603  1  0.54721000  0.87456300  0.07993320  1
  H  H604  1  0.59555500  0.95860300  0.15309700  1
  H  H605  1  0.59445600  0.89511200  0.08350830  1
  H  H606  1  0.58394500  0.95114400  0.05688680  1
  H  H607  1  0.61117600  0.95111600  0.09708070  1
  H  H608  1  0.56624200  0.97730900  0.09955380  1
  C  C609  1  0.54378100  0.87422500  0.10700800  1
  C  C610  1  0.58089400  0.94104100  0.19272300  1
  C  C611  1  0.54879600  0.89700300  0.17393200  1
  C  C612  1  0.55552300  0.89676100  0.13620000  1
  C  C613  1  0.57189400  0.92065900  0.12832800  1
  C  C614  1  0.58304700  0.94214700  0.15837400  1
  C  C615  1  0.52997300  0.87488500  0.18202800  1
  C  C616  1  0.52780700  0.85081300  0.11510800  1
  C  C617  1  0.58565500  0.95314100  0.08589850  1
  N  N618  1  0.57786600  0.92152700  0.09211300  1
  H  H619  1  0.52638600  0.87176200  0.20926600  1
  H  H620  1  0.54389500  0.90564700  0.24639400  1
  C  C621  1  0.55717400  0.92033400  0.23956200  1
  C  C622  1  0.56253500  0.91872700  0.20267300  1
  C  C623  1  0.59372600  0.96449200  0.22006100  1
  H  H624  1  0.85357400  0.83223600  0.09344170  1
  C  C625  1  0.85543000  0.84975200  0.15379600  1
  C  C626  1  0.86330600  0.87490400  0.18202000  1
  C  C627  1  0.86114500  0.85083000  0.11508400  1
  H  H628  1  0.74850700  0.97195300  0.01246600  1
  H  H629  1  0.85972200  0.87177000  0.20926300  1
  H  H630  1  0.88054600  0.87456400  0.07992820  1
  H  H631  1  0.92888900  0.95860600  0.15309800  1
  H  H632  1  0.92779000  0.89511200  0.08350810  1
  H  H633  1  0.91727800  0.95114400  0.05688690  1
  H  H634  1  0.94451000  0.95111600  0.09708080  1
  H  H635  1  0.89957500  0.97730900  0.09955380  1
  C  C636  1  0.87712100  0.87422900  0.10699900  1
  C  C637  1  0.91422800  0.94104300  0.19272300  1
  C  C638  1  0.88213300  0.89700800  0.17393200  1
  C  C639  1  0.88885800  0.89676500  0.13619800  1
  C  C640  1  0.90522800  0.92066100  0.12832800  1
  C  C641  1  0.91638100  0.94214900  0.15837400  1
  C  C642  1  0.91898900  0.95314100  0.08589870  1
  N  N643  1  0.91120000  0.92152700  0.09211300  1
  H  H644  1  0.87722800  0.90564800  0.24639500  1
  C  C645  1  0.89050800  0.92033500  0.23956200  1
  C  C646  1  0.89587000  0.91872800  0.20267400  1
  C  C647  1  0.92705900  0.96449400  0.22006100  1
  C  C648  1  0.02090890  0.04612660  0.48432500  1
  C  C649  1  0.03548960  0.00747479  0.48450700  1
  C  C650  1  0.04659060  0.06401950  0.49114000  1
  O  O651  1  0.04231710  0.09192190  0.47674800  1
  H  H652  1  0.06675310  0.12103300  0.38120100  1
  H  H653  1  0.12732800  0.07236710  0.38876100  1
  O  O654  1  0.22449500  0.07523930  0.26558700  1
  O  O655  1  0.16291500  0.05974020  0.28074500  1
  C  C656  1  0.22300400  0.07531640  0.31237200  1
  C  C657  1  0.22118400  0.07539480  0.37014900  1
  H  H658  1  0.27200600  0.05826330  0.40294100  1
  H  H659  1  0.17528100  0.08478610  0.46808300  1
  C  C660  1  0.29138300  0.04363050  0.47052600  1
  C  C661  1  0.30828800  0.00479429  0.46722200  1
  C  C662  1  0.24633200  0.06403650  0.41018500  1
  C  C663  1  0.19886400  0.07934580  0.46151300  1
  C  C664  1  0.25033300  0.06053890  0.46219500  1
  C  C665  1  0.19580000  0.08373540  0.40986000  1
  C  C666  1  0.12570800  0.09929040  0.39545900  1
  O  O667  1  0.21555700  0.08219630  0.26706000  1
  C  C668  1  0.15670400  0.10907400  0.40544300  1
  H  H669  1  0.27353900  0.11791700  0.46548000  1
  C  C670  1  0.09053970  0.12776200  0.39251100  1
  H  H671  1  0.46066200  0.07236540  0.38876100  1
  O  O672  1  0.28886300  0.06984900  0.26462600  1
  C  C673  1  0.31496500  0.06461020  0.47706600  1
  C  C674  1  0.35424100  0.04612700  0.48432500  1
  C  C675  1  0.36882200  0.00747506  0.48450700  1
  C  C676  1  0.37992300  0.06401950  0.49114000  1
  O  O677  1  0.37565000  0.09192200  0.47674800  1
  C  C678  1  0.29762900  0.10569900  0.48020300  1
  H  H679  1  0.40008800  0.12103300  0.38120100  1
  C  C680  1  0.45904600  0.09928670  0.39545700  1
  C  C681  1  0.42387600  0.12776000  0.39251100  1
  O  O682  1  0.55780200  0.07525260  0.26559000  1
  O  O683  1  0.62218600  0.06984710  0.26462700  1
  O  O684  1  0.49623700  0.05973290  0.28074300  1
  C  C685  1  0.55628200  0.07535790  0.31239500  1
  C  C686  1  0.55450100  0.07541270  0.37014700  1
  H  H687  1  0.60535800  0.05824090  0.40293300  1
  H  H688  1  0.50861900  0.08477740  0.46807100  1
  C  C689  1  0.64830600  0.06460750  0.47706700  1
  C  C690  1  0.62471800  0.04363620  0.47053400  1
  C  C691  1  0.64162400  0.00479269  0.46721900  1
  C  C692  1  0.57968200  0.06401530  0.41017400  1
  C  C693  1  0.53213500  0.07948330  0.46146000  1
  C  C694  1  0.58363400  0.06062800  0.46220800  1
  C  C695  1  0.52913600  0.08374590  0.40983300  1
  C  C696  1  0.63096600  0.10569800  0.48020300  1
  O  O697  1  0.54888900  0.08221030  0.26705900  1
  H  H698  1  0.60687300  0.11791600  0.46548000  1
  C  C699  1  0.49004400  0.10906900  0.40543600  1
  H  H700  1  0.79399400  0.07236590  0.38876000  1
  O  O701  1  0.82957700  0.05973820  0.28074700  1
  C  C702  1  0.68757900  0.04612530  0.48432600  1
  C  C703  1  0.70215800  0.00747375  0.48450800  1
  C  C704  1  0.71325900  0.06401940  0.49114100  1
  O  O705  1  0.70898400  0.09192210  0.47674800  1
  H  H706  1  0.73341900  0.12103300  0.38120000  1
  C  C707  1  0.79237500  0.09928850  0.39545900  1
  C  C708  1  0.82337800  0.10907300  0.40543600  1
  C  C709  1  0.75720600  0.12776200  0.39251100  1
  H  H710  1  0.84195300  0.08478180  0.46807800  1
  O  O711  1  0.89106400  0.07513870  0.26550800  1
  O  O712  1  0.95549700  0.06984010  0.26462800  1
  C  C713  1  0.88962000  0.07526910  0.31237500  1
  C  C714  1  0.88791900  0.07536930  0.37012300  1
  H  H715  1  0.93868000  0.05824080  0.40293800  1
  C  C716  1  0.98163500  0.06460990  0.47706500  1
  C  C717  1  0.95805300  0.04363300  0.47052300  1
  C  C718  1  0.97495500  0.00479471  0.46722100  1
  C  C719  1  0.91302300  0.06404840  0.41019900  1
  C  C720  1  0.86552800  0.07937030  0.46149800  1
  C  C721  1  0.91699800  0.06056210  0.46220100  1
  C  C722  1  0.86251100  0.08374270  0.40982900  1
  C  C723  1  0.96429700  0.10569900  0.48020300  1
  O  O724  1  0.88230400  0.08211800  0.26706900  1
  H  H725  1  0.94020600  0.11791700  0.46548000  1
  H  H726  1  0.04367830  0.19324300  0.36633400  1
  N  N727  1  0.05258130  0.19215800  0.39768000  1
  H  H728  1  0.02781190  0.19337400  0.40640600  1
  H  H729  1  0.02453500  0.29117100  0.47547500  1
  H  H730  1  0.17352500  0.15269400  0.43223500  1
  H  H731  1  0.13954200  0.21579200  0.43909700  1
  C  C732  1  0.15035900  0.14598000  0.41992700  1
  C  C733  1  0.11596800  0.17471500  0.41742300  1
  C  C734  1  0.08553340  0.16537200  0.40285700  1
  C  C735  1  0.11440000  0.21138000  0.42943700  1
  O  O736  1  0.08528100  0.23961000  0.42974500  1
  H  H737  1  0.08889480  0.30362600  0.46790200  1
  H  H738  1  0.37701200  0.19324300  0.36633400  1
  N  N739  1  0.38591500  0.19215700  0.39768100  1
  H  H740  1  0.35787400  0.29116600  0.47547600  1
  H  H741  1  0.36114600  0.19337400  0.40640600  1
  C  C742  1  0.41886800  0.16537000  0.40285700  1
  H  H743  1  0.22883600  0.27772200  0.29141600  1
  C  C744  1  0.23569800  0.27603000  0.26654000  1
  C  C745  1  0.25375400  0.29753300  0.25757400  1
  H  H746  1  0.50686000  0.15269300  0.43223500  1
  H  H747  1  0.47287600  0.21579100  0.43909700  1
  C  C748  1  0.48369500  0.14597700  0.41992500  1
  C  C749  1  0.44930300  0.17471200  0.41742200  1
  C  C750  1  0.44773400  0.21137900  0.42943700  1
  O  O751  1  0.41861500  0.23960900  0.42974500  1
  H  H752  1  0.56217000  0.27772200  0.29141500  1
  H  H753  1  0.42223000  0.30362500  0.46790100  1
  H  H754  1  0.71034500  0.19324300  0.36633400  1
  N  N755  1  0.71924800  0.19215800  0.39768000  1
  H  H756  1  0.69120700  0.29116600  0.47547600  1
  H  H757  1  0.69447900  0.19337400  0.40640600  1
  C  C758  1  0.78263300  0.17471500  0.41742300  1
  C  C759  1  0.75219900  0.16537200  0.40285700  1
  C  C760  1  0.78106700  0.21138000  0.42943700  1
  O  O761  1  0.75194800  0.23961000  0.42974500  1
  C  C762  1  0.56903200  0.27603100  0.26654000  1
  C  C763  1  0.58708700  0.29753300  0.25757300  1
  H  H764  1  0.75556300  0.30362600  0.46790100  1
  C  C765  1  0.81702300  0.14598100  0.41992700  1
  H  H766  1  0.84019000  0.15269400  0.43223400  1
  H  H767  1  0.80620900  0.21579100  0.43909700  1
  H  H768  1  0.89550300  0.27772200  0.29141600  1
  C  C769  1  0.90236300  0.27603200  0.26653900  1
  C  C770  1  0.92042000  0.29753300  0.25757200  1
  C  C771  1  0.01260160  0.32099700  0.47592000  1
  H  H772  1  0.06675510  0.45436600  0.38120100  1
  H  H773  1  0.12733000  0.40569800  0.38876100  1
  C  C774  1  0.09054200  0.46109300  0.39251100  1
  C  C775  1  0.12571000  0.43262100  0.39546100  1
  N  N776  1  0.07182930  0.32307300  0.48979700  1
  C  C777  1  0.02090580  0.37946100  0.48432400  1
  C  C778  1  0.03548750  0.34080900  0.48450700  1
  C  C779  1  0.04658950  0.39735300  0.49114000  1
  O  O780  1  0.04231700  0.42525500  0.47674800  1
  H  H781  1  0.25841900  0.31600700  0.27619800  1
  O  O782  1  0.28884300  0.40317700  0.26462700  1
  O  O783  1  0.16290800  0.39307100  0.28074500  1
  C  C784  1  0.22300300  0.40860600  0.31236600  1
  O  O785  1  0.21562200  0.41546200  0.26705400  1
  O  O786  1  0.22444300  0.40854100  0.26555300  1
  C  C787  1  0.22122900  0.40868400  0.37013300  1
  H  H788  1  0.26654400  0.32047400  0.47454700  1
  H  H789  1  0.27791700  0.31300200  0.42886600  1
  N  N790  1  0.28925500  0.31634400  0.45885700  1
  H  H791  1  0.27201600  0.39157500  0.40293000  1
  H  H792  1  0.17529000  0.41810800  0.46808200  1
  H  H793  1  0.27354100  0.45124800  0.46548000  1
  C  C794  1  0.31497000  0.39794100  0.47706200  1
  C  C795  1  0.29138400  0.37696500  0.47052200  1
  C  C796  1  0.30829200  0.33812600  0.46721900  1
  C  C797  1  0.24634500  0.39737900  0.41019100  1
  C  C798  1  0.19581300  0.41708900  0.40984900  1
  C  C799  1  0.19885900  0.41270900  0.46150400  1
  C  C800  1  0.25032500  0.39389000  0.46219700  1
  C  C801  1  0.15035700  0.47931500  0.41993000  1
  C  C802  1  0.15670300  0.44241200  0.40544600  1
  C  C803  1  0.29763300  0.43903000  0.48020200  1
  C  C804  1  0.34594400  0.32099000  0.47592000  1
  C  C805  1  0.35424600  0.37945800  0.48432400  1
  C  C806  1  0.36882700  0.34080600  0.48450800  1
  H  H807  1  0.17352600  0.48602700  0.43223600  1
  O  O808  1  0.49625100  0.39307900  0.28074700  1
  H  H809  1  0.40008800  0.45436600  0.38120100  1
  H  H810  1  0.46066100  0.40569900  0.38876200  1
  C  C811  1  0.42387500  0.46109500  0.39251100  1
  C  C812  1  0.45904200  0.43262100  0.39546200  1
  N  N813  1  0.40516700  0.32307200  0.48979800  1
  H  H814  1  0.50862800  0.41810800  0.46808800  1
  C  C815  1  0.48369400  0.47931000  0.41992900  1
  C  C816  1  0.49003900  0.44240300  0.40545100  1
  C  C817  1  0.37992600  0.39735200  0.49114100  1
  O  O818  1  0.37565200  0.42525500  0.47674800  1
  H  H819  1  0.59175200  0.31600800  0.27619700  1
  O  O820  1  0.62219500  0.40318400  0.26462400  1
  C  C821  1  0.55602300  0.40896200  0.31237900  1
  O  O822  1  0.54889800  0.41555900  0.26707300  1
  O  O823  1  0.55802000  0.40836800  0.26558100  1
  C  C824  1  0.55466800  0.40855400  0.37013800  1
  C  C825  1  0.52914000  0.41705900  0.40985100  1
  C  C826  1  0.53219400  0.41268600  0.46150100  1
  H  H827  1  0.59987800  0.32047300  0.47454600  1
  H  H828  1  0.61125000  0.31300200  0.42886600  1
  N  N829  1  0.62258900  0.31634200  0.45885700  1
  H  H830  1  0.60534500  0.39159900  0.40293800  1
  H  H831  1  0.60687300  0.45124800  0.46548000  1
  C  C832  1  0.64830300  0.39794000  0.47706300  1
  C  C833  1  0.62472100  0.37696000  0.47052100  1
  C  C834  1  0.64162800  0.33812200  0.46721900  1
  C  C835  1  0.57967600  0.39736600  0.41018700  1
  C  C836  1  0.58366000  0.39388000  0.46219800  1
  C  C837  1  0.63096500  0.43903000  0.48020200  1
  C  C838  1  0.67927800  0.32098900  0.47592100  1
  N  N839  1  0.73850000  0.32307200  0.48979800  1
  C  C840  1  0.68757800  0.37945800  0.48432500  1
  C  C841  1  0.70216000  0.34080700  0.48450800  1
  C  C842  1  0.71325900  0.39735300  0.49114100  1
  O  O843  1  0.70898400  0.42525600  0.47674800  1
  H  H844  1  0.50686100  0.48602500  0.43223600  1
  O  O845  1  0.82970300  0.39321100  0.28076200  1
  H  H846  1  0.73340600  0.45437200  0.38119400  1
  H  H847  1  0.79397500  0.40570600  0.38876200  1
  C  C848  1  0.75718300  0.46110800  0.39250800  1
  C  C849  1  0.79233100  0.43263600  0.39547000  1
  C  C850  1  0.88763100  0.40844000  0.37008900  1
  H  H851  1  0.84191300  0.41810700  0.46812500  1
  C  C852  1  0.86237800  0.41693100  0.40988200  1
  C  C853  1  0.86548700  0.41261600  0.46152100  1
  C  C854  1  0.81701100  0.47931100  0.41994100  1
  C  C855  1  0.82331900  0.44239800  0.40549600  1
  H  H856  1  0.84018900  0.48601600  0.43223100  1
  H  H857  1  0.93320700  0.32047500  0.47454700  1
  C  C858  1  0.88731300  0.41079800  0.31256500  1
  H  H859  1  0.92508400  0.31600800  0.27619600  1
  O  O860  1  0.88669600  0.41288300  0.26627600  1
  O  O861  1  0.95564600  0.40324300  0.26460000  1
  O  O862  1  0.89137300  0.40813600  0.26570800  1
  H  H863  1  0.94458200  0.31300200  0.42886400  1
  N  N864  1  0.95591400  0.31635000  0.45885600  1
  H  H865  1  0.93856500  0.39172600  0.40293400  1
  H  H866  1  0.94020500  0.45125200  0.46548000  1
  C  C867  1  0.98162800  0.39794700  0.47705600  1
  C  C868  1  0.95803200  0.37698200  0.47049100  1
  C  C869  1  0.97494600  0.33813600  0.46721500  1
  C  C870  1  0.91291700  0.39748200  0.41015600  1
  C  C871  1  0.91696000  0.39392000  0.46217300  1
  C  C872  1  0.96429600  0.43903400  0.48020200  1
  H  H873  1  0.04367870  0.52657600  0.36633500  1
  N  N874  1  0.05258270  0.52549000  0.39768100  1
  H  H875  1  0.02453780  0.62450100  0.47547500  1
  H  H876  1  0.02781280  0.52670700  0.40640600  1
  C  C877  1  0.01260900  0.65432400  0.47592100  1
  C  C878  1  0.08553500  0.49870400  0.40285700  1
  C  C879  1  0.03549090  0.67414100  0.48450700  1
  O  O880  1  0.08528170  0.57294200  0.42974400  1
  C  C881  1  0.11596800  0.50804700  0.41742300  1
  N  N882  1  0.07183120  0.65640600  0.48979800  1
  H  H883  1  0.22883700  0.61105600  0.29141500  1
  C  C884  1  0.23569900  0.60936400  0.26654000  1
  H  H885  1  0.08889510  0.63695900  0.46790100  1
  H  H886  1  0.13954200  0.54912500  0.43909700  1
  C  C887  1  0.11440100  0.54471200  0.42943700  1
  H  H888  1  0.25841900  0.64934100  0.27619700  1
  C  C889  1  0.25375300  0.63086700  0.25757300  1
  H  H890  1  0.37701200  0.52657600  0.36633400  1
  N  N891  1  0.38591600  0.52549000  0.39768100  1
  H  H892  1  0.26654100  0.65380900  0.47454700  1
  H  H893  1  0.27791600  0.64633500  0.42886500  1
  N  N894  1  0.28924900  0.64968100  0.45885700  1
  C  C895  1  0.30828600  0.67146300  0.46722100  1
  H  H896  1  0.35787000  0.62450200  0.47547400  1
  H  H897  1  0.42222900  0.63695900  0.46790100  1
  H  H898  1  0.36114600  0.52670700  0.40640600  1
  C  C899  1  0.34593900  0.65432700  0.47592000  1
  C  C900  1  0.44930300  0.50804600  0.41742300  1
  C  C901  1  0.41886800  0.49870400  0.40285700  1
  C  C902  1  0.44773500  0.54471200  0.42943600  1
  N  N903  1  0.40516400  0.65640600  0.48979800  1
  O  O904  1  0.41861500  0.57294200  0.42974400  1
  C  C905  1  0.36882300  0.67414100  0.48450700  1
  H  H906  1  0.47287600  0.54912500  0.43909700  1
  H  H907  1  0.59175200  0.64934100  0.27619700  1
  H  H908  1  0.56217000  0.61105600  0.29141500  1
  C  C909  1  0.58708700  0.63086700  0.25757300  1
  C  C910  1  0.56903200  0.60936400  0.26654000  1
  H  H911  1  0.59987400  0.65380800  0.47454700  1
  H  H912  1  0.61125000  0.64633500  0.42886500  1
  N  N913  1  0.62258400  0.64967900  0.45885700  1
  H  H914  1  0.71034400  0.52657700  0.36633300  1
  N  N915  1  0.71924300  0.52549800  0.39768000  1
  C  C916  1  0.64162300  0.67146000  0.46722200  1
  H  H917  1  0.69120300  0.62450200  0.47547400  1
  H  H918  1  0.75556200  0.63696000  0.46790100  1
  H  H919  1  0.69447700  0.52670900  0.40640600  1
  H  H920  1  0.80620900  0.54912600  0.43909700  1
  C  C921  1  0.67927300  0.65432600  0.47592000  1
  C  C922  1  0.78262700  0.50805400  0.41742300  1
  C  C923  1  0.75219000  0.49871300  0.40285700  1
  C  C924  1  0.78106600  0.54471600  0.42943500  1
  N  N925  1  0.73849700  0.65640600  0.48979800  1
  O  O926  1  0.75194700  0.57294700  0.42974500  1
  C  C927  1  0.70215600  0.67414100  0.48450700  1
  H  H928  1  0.92508600  0.64934200  0.27619300  1
  H  H929  1  0.89550400  0.61105600  0.29141500  1
  C  C930  1  0.92042000  0.63086900  0.25756900  1
  C  C931  1  0.90236600  0.60936500  0.26653900  1
  H  H932  1  0.93320800  0.65380800  0.47454700  1
  H  H933  1  0.94458300  0.64633500  0.42886500  1
  N  N934  1  0.95591900  0.64967800  0.45885700  1
  C  C935  1  0.97496000  0.67145700  0.46722000  1
  C  C936  1  0.02090990  0.71279300  0.48432500  1
  O  O937  1  0.16290300  0.72640700  0.28074400  1
  H  H938  1  0.06675220  0.78770000  0.38120000  1
  H  H939  1  0.12732900  0.73903200  0.38876100  1
  C  C940  1  0.09053860  0.79442800  0.39251100  1
  C  C941  1  0.12570800  0.76595800  0.39546000  1
  H  H942  1  0.17528200  0.75145200  0.46807800  1
  H  H943  1  0.17352000  0.81936600  0.43223500  1
  C  C944  1  0.19582700  0.75043700  0.40984600  1
  C  C945  1  0.19886100  0.74606100  0.46151400  1
  C  C946  1  0.15035000  0.81265600  0.41992900  1
  C  C947  1  0.11596400  0.84138400  0.41742300  1
  C  C948  1  0.08553160  0.83203900  0.40285700  1
  C  C949  1  0.15670100  0.77575500  0.40543900  1
  C  C950  1  0.04659100  0.73068600  0.49114000  1
  O  O951  1  0.04231720  0.75858900  0.47674700  1
  O  O952  1  0.21561800  0.74877000  0.26706100  1
  O  O953  1  0.28882300  0.73650700  0.26463000  1
  C  C954  1  0.22300300  0.74188900  0.31234700  1
  O  O955  1  0.22443000  0.74181500  0.26552100  1
  C  C956  1  0.22126600  0.74196300  0.37011600  1
  H  H957  1  0.27201100  0.72489500  0.40292900  1
  H  H958  1  0.27354000  0.78458400  0.46548000  1
  C  C959  1  0.31496600  0.73127700  0.47706400  1
  C  C960  1  0.29138100  0.71030300  0.47052300  1
  C  C961  1  0.24634700  0.73072500  0.41020100  1
  C  C962  1  0.25032900  0.72723000  0.46219800  1
  C  C963  1  0.29763100  0.77236600  0.48020200  1
  C  C964  1  0.35424200  0.71279300  0.48432500  1
  C  C965  1  0.37992400  0.73068600  0.49114000  1
  O  O966  1  0.37565100  0.75858900  0.47674800  1
  O  O967  1  0.49624000  0.72640100  0.28074400  1
  H  H968  1  0.40008700  0.78770000  0.38120100  1
  H  H969  1  0.46066200  0.73903300  0.38876100  1
  C  C970  1  0.55625600  0.74203800  0.31238900  1
  C  C971  1  0.42387400  0.79442800  0.39251100  1
  C  C972  1  0.45904300  0.76595600  0.39545800  1
  O  O973  1  0.54891100  0.74885300  0.26705800  1
  O  O974  1  0.55781000  0.74190000  0.26558400  1
  C  C975  1  0.55453400  0.74204900  0.37014900  1
  H  H976  1  0.50861800  0.75145200  0.46808200  1
  H  H977  1  0.50686000  0.81936000  0.43223500  1
  C  C978  1  0.57967500  0.73069800  0.41018400  1
  C  C979  1  0.52914000  0.75040700  0.40985800  1
  C  C980  1  0.53220500  0.74601400  0.46151500  1
  C  C981  1  0.58367600  0.72720100  0.46219000  1
  C  C982  1  0.48369300  0.81264600  0.41992600  1
  C  C983  1  0.44930200  0.84138000  0.41742300  1
  C  C984  1  0.41886800  0.83203800  0.40285700  1
  C  C985  1  0.49003900  0.77574100  0.40544100  1
  O  O986  1  0.62219000  0.73651700  0.26462800  1
  H  H987  1  0.73342000  0.78770000  0.38120000  1
  H  H988  1  0.60534600  0.72492200  0.40293900  1
  H  H989  1  0.60687200  0.78458400  0.46548000  1
  C  C990  1  0.64829900  0.73127600  0.47706600  1
  C  C991  1  0.62472000  0.71029600  0.47052400  1
  C  C992  1  0.63096300  0.77236600  0.48020300  1
  C  C993  1  0.68757500  0.71279300  0.48432500  1
  C  C994  1  0.71325700  0.73068600  0.49114000  1
  O  O995  1  0.70898400  0.75858900  0.47674700  1
  O  O996  1  0.82958800  0.72641800  0.28074100  1
  H  H997  1  0.79399400  0.73903400  0.38876200  1
  C  C998  1  0.88962600  0.74203700  0.31237400  1
  C  C999  1  0.75720600  0.79442900  0.39251100  1
  C  C1000  1  0.79237400  0.76595700  0.39546100  1
  O  O1001  1  0.88223900  0.74897800  0.26706300  1
  O  O1002  1  0.89114100  0.74198000  0.26560400  1
  C  C1003  1  0.88785500  0.74202800  0.37013600  1
  H  H1004  1  0.93867000  0.72493300  0.40293600  1
  H  H1005  1  0.84196200  0.75144300  0.46808900  1
  H  H1006  1  0.84019200  0.81936000  0.43223600  1
  C  C1007  1  0.95805700  0.71029200  0.47051800  1
  C  C1008  1  0.91300100  0.73069100  0.41017500  1
  C  C1009  1  0.86247000  0.75039800  0.40986000  1
  C  C1010  1  0.86553200  0.74601000  0.46150600  1
  C  C1011  1  0.91700100  0.72720500  0.46218800  1
  C  C1012  1  0.81702500  0.81264700  0.41992900  1
  C  C1013  1  0.78263500  0.84138100  0.41742300  1
  C  C1014  1  0.75220000  0.83203800  0.40285700  1
  C  C1015  1  0.82337000  0.77574000  0.40545300  1
  O  O1016  1  0.95553100  0.73652200  0.26462600  1
  H  H1017  1  0.94020600  0.78458300  0.46548000  1
  C  C1018  1  0.98163600  0.73127500  0.47706300  1
  C  C1019  1  0.96429700  0.77236500  0.48020300  1
  H  H1020  1  0.04367810  0.85991000  0.36633400  1
  N  N1021  1  0.05258030  0.85882500  0.39768000  1
  H  H1022  1  0.02781150  0.86004100  0.40640600  1
  H  H1023  1  0.13954200  0.88245800  0.43909700  1
  C  C1024  1  0.11439900  0.87804800  0.42943700  1
  H  H1025  1  0.02453650  0.95783600  0.47547400  1
  H  H1026  1  0.08889500  0.97029300  0.46790100  1
  C  C1027  1  0.01260630  0.98766000  0.47592000  1
  N  N1028  1  0.07183040  0.98974000  0.48979800  1
  O  O1029  1  0.08528060  0.90627800  0.42974500  1
  H  H1030  1  0.25841800  0.98267400  0.27619800  1
  H  H1031  1  0.22883600  0.94438900  0.29141600  1
  C  C1032  1  0.25375300  0.96420000  0.25757400  1
  C  C1033  1  0.23569800  0.94269700  0.26654000  1
  H  H1034  1  0.26654000  0.98714200  0.47454700  1
  H  H1035  1  0.27791700  0.97966800  0.42886500  1
  N  N1036  1  0.28925000  0.98301300  0.45885700  1
  H  H1037  1  0.37701200  0.85990900  0.36633400  1
  N  N1038  1  0.38591500  0.85882400  0.39768100  1
  H  H1039  1  0.36114500  0.86004000  0.40640600  1
  H  H1040  1  0.47287500  0.88245800  0.43909700  1
  C  C1041  1  0.44773400  0.87804600  0.42943700  1
  H  H1042  1  0.35787000  0.95783600  0.47547400  1
  H  H1043  1  0.42222800  0.97029300  0.46790100  1
  C  C1044  1  0.34593900  0.98766000  0.47592000  1
  N  N1045  1  0.40516400  0.98974000  0.48979800  1
  O  O1046  1  0.41861500  0.90627600  0.42974500  1
  H  H1047  1  0.71034500  0.85990900  0.36633400  1
  H  H1048  1  0.69447900  0.86004000  0.40640600  1
  H  H1049  1  0.59175200  0.98267400  0.27619800  1
  H  H1050  1  0.56217000  0.94438900  0.29141600  1
  C  C1051  1  0.58708700  0.96419900  0.25757400  1
  C  C1052  1  0.56903200  0.94269700  0.26654000  1
  H  H1053  1  0.59987400  0.98714300  0.47454700  1
  H  H1054  1  0.61125000  0.97966800  0.42886500  1
  N  N1055  1  0.62258400  0.98301400  0.45885700  1
  N  N1056  1  0.71924800  0.85882400  0.39768000  1
  H  H1057  1  0.80620900  0.88245800  0.43909700  1
  C  C1058  1  0.78106700  0.87804700  0.42943700  1
  H  H1059  1  0.69120500  0.95783400  0.47547500  1
  H  H1060  1  0.75556200  0.97029200  0.46790100  1
  C  C1061  1  0.67927600  0.98765700  0.47592000  1
  N  N1062  1  0.73849900  0.98973900  0.48979800  1
  O  O1063  1  0.75194800  0.90627700  0.42974500  1
  H  H1064  1  0.92508500  0.98267300  0.27619800  1
  H  H1065  1  0.89550300  0.94438900  0.29141600  1
  C  C1066  1  0.92042000  0.96419900  0.25757400  1
  C  C1067  1  0.90236500  0.94269700  0.26654000  1
  H  H1068  1  0.93320700  0.98714200  0.47454700  1
  H  H1069  1  0.94458300  0.97966800  0.42886500  1
  N  N1070  1  0.95591600  0.98301500  0.45885700  1
  H  H1071  1  0.00359990  0.02321760  0.58199100  1
  H  H1072  1  0.07268760  0.05339110  0.50732700  1
  H  H1073  1  0.10714600  0.05255400  0.73054900  1
  H  H1074  1  0.01133470  0.07612750  0.72843900  1
  H  H1075  1  0.01281660  0.12772300  0.71567300  1
  H  H1076  1  0.00634550  0.13007900  0.66917000  1
  H  H1077  1  0.10078900  0.01182100  0.67926900  1
  H  H1078  1  0.09862860  0.02853790  0.63780500  1
  H  H1079  1  0.02966490  0.05205970  0.59944500  1
  H  H1080  1  0.06912760  0.11874400  0.62977200  1
  C  C1081  1  0.11539700  0.06890780  0.71571900  1
  C  C1082  1  0.01581010  0.05708880  0.67040100  1
  C  C1083  1  0.09039800  0.09091650  0.69244700  1
  C  C1084  1  0.10098900  0.11379300  0.67577900  1
  C  C1085  1  0.05231910  0.05784150  0.67107500  1
  C  C1086  1  0.05623580  0.09010040  0.68566400  1
  N  N1087  1  0.02640550  0.12513100  0.69231700  1
  N  N1088  1  0.08171270  0.02423250  0.65644400  1
  N  N1089  1  0.01359240  0.03806470  0.60291500  1
  N  N1090  1  0.07946010  0.13354800  0.64930400  1
  C  C1091  1  0.22442000  0.06841720  0.50130700  1
  C  C1092  1  0.22463000  0.06723840  0.55934600  1
  O  O1093  1  0.21677600  0.07691830  0.60577000  1
  O  O1094  1  0.22490900  0.06623690  0.60586800  1
  Zn  Zn1095  1  0.24336000  0.05254190  0.68507400  1
  Zn  Zn1096  1  0.20303300  0.09384610  0.68765100  1
  O  O1097  1  0.21513900  0.12020600  0.65355100  1
  O  O1098  1  0.22909700  0.02480960  0.70249700  1
  H  H1099  1  0.28559000  0.03142960  0.61960500  1
  C  C1100  1  0.29420300  0.07574180  0.70202600  1
  C  C1101  1  0.15051700  0.06742370  0.71754900  1
  C  C1102  1  0.29794400  0.04369140  0.64029600  1
  C  C1103  1  0.13663800  0.10846100  0.67482800  1
  N  N1104  1  0.28031700  0.05891500  0.67448700  1
  N  N1105  1  0.16182900  0.08412760  0.69279000  1
  N  N1106  1  0.27510700  0.08988500  0.73477700  1
  N  N1107  1  0.17370000  0.04633180  0.74335800  1
  O  O1108  1  0.24317400  0.11462200  0.73320000  1
  O  O1109  1  0.18447400  0.01200930  0.73236600  1
  H  H1110  1  0.14699400  0.11745200  0.65427800  1
  O  O1111  1  0.28129400  0.00467013  0.68559800  1
  C  C1112  1  0.18980100  0.15044600  0.66451100  1
  O  O1113  1  0.17758700  0.14670500  0.69829800  1
  C  C1114  1  0.25954300  0.00005733  0.70866600  1
  H  H1115  1  0.33693300  0.02321750  0.58199100  1
  H  H1116  1  0.40602100  0.05339110  0.50732700  1
  C  C1117  1  0.33034000  0.06966160  0.70362300  1
  C  C1118  1  0.33185000  0.04521290  0.63770300  1
  H  H1119  1  0.44048100  0.05255330  0.73054800  1
  H  H1120  1  0.34466700  0.07612690  0.72843700  1
  H  H1121  1  0.34615000  0.12772300  0.71567300  1
  H  H1122  1  0.33967900  0.13007900  0.66917100  1
  H  H1123  1  0.43412200  0.01182100  0.67926900  1
  H  H1124  1  0.43196200  0.02853790  0.63780500  1
  H  H1125  1  0.36299800  0.05205950  0.59944600  1
  H  H1126  1  0.40246100  0.11874300  0.62977200  1
  C  C1127  1  0.48385500  0.06743180  0.71754400  1
  C  C1128  1  0.44873500  0.06890430  0.71571400  1
  C  C1129  1  0.34914300  0.05708790  0.67040000  1
  C  C1130  1  0.42373200  0.09091590  0.69244700  1
  C  C1131  1  0.43431900  0.11379200  0.67577400  1
  C  C1132  1  0.46995500  0.10847600  0.67481900  1
  C  C1133  1  0.38565200  0.05784130  0.67107400  1
  C  C1134  1  0.38957000  0.09009990  0.68566400  1
  N  N1135  1  0.50704100  0.04633510  0.74335700  1
  N  N1136  1  0.35973900  0.12513100  0.69231700  1
  N  N1137  1  0.41504600  0.02423240  0.65644400  1
  N  N1138  1  0.34692500  0.03806460  0.60291500  1
  O  O1139  1  0.51781000  0.01201140  0.73236400  1
  N  N1140  1  0.41279200  0.13354800  0.64930300  1
  O  O1141  1  0.31014600  0.12605600  0.50147300  1
  C  C1142  1  0.55752800  0.06906650  0.50131500  1
  C  C1143  1  0.55744900  0.06782830  0.55923700  1
  H  H1144  1  0.67026700  0.02321780  0.58199200  1
  N  N1145  1  0.49514100  0.08419890  0.69281700  1
  H  H1146  1  0.48032200  0.11745700  0.65427300  1
  O  O1147  1  0.55179800  0.07394200  0.60631100  1
  O  O1148  1  0.55774900  0.06665080  0.60575600  1
  Zn  Zn1149  1  0.57665000  0.05264220  0.68508100  1
  Zn  Zn1150  1  0.53618900  0.09426380  0.68765200  1
  O  O1151  1  0.54842200  0.12028400  0.65348900  1
  O  O1152  1  0.56243100  0.02482870  0.70249300  1
  H  H1153  1  0.61894900  0.03140710  0.61961500  1
  C  C1154  1  0.62754300  0.07574460  0.70202800  1
  C  C1155  1  0.66367700  0.06966330  0.70362700  1
  C  C1156  1  0.66519000  0.04521300  0.63770600  1
  C  C1157  1  0.63129100  0.04368400  0.64030200  1
  N  N1158  1  0.61366300  0.05891270  0.67448800  1
  N  N1159  1  0.60844300  0.08988520  0.73477800  1
  O  O1160  1  0.57651300  0.11462800  0.73319700  1
  H  H1161  1  0.67800300  0.07612760  0.72843900  1
  C  C1162  1  0.68247900  0.05708970  0.67040200  1
  N  N1163  1  0.68026000  0.03806440  0.60291500  1
  O  O1164  1  0.61462300  0.00468892  0.68559800  1
  O  O1165  1  0.64347900  0.12605600  0.50147400  1
  C  C1166  1  0.52311700  0.15050300  0.66446900  1
  O  O1167  1  0.51080000  0.14689200  0.69819400  1
  C  C1168  1  0.59287600  0.00006314  0.70866200  1
  H  H1169  1  0.73935500  0.05339130  0.50732700  1
  H  H1170  1  0.77381500  0.05255550  0.73054900  1
  H  H1171  1  0.67948400  0.12772300  0.71567300  1
  H  H1172  1  0.67301300  0.13007900  0.66917100  1
  H  H1173  1  0.76745600  0.01182110  0.67927000  1
  H  H1174  1  0.76529500  0.02853780  0.63780500  1
  H  H1175  1  0.69633200  0.05205980  0.59944500  1
  H  H1176  1  0.73579600  0.11874400  0.62977400  1
  C  C1177  1  0.81719100  0.06741760  0.71754500  1
  C  C1178  1  0.78207000  0.06890500  0.71571600  1
  C  C1179  1  0.75706900  0.09091550  0.69244700  1
  C  C1180  1  0.76766200  0.11378900  0.67577800  1
  C  C1181  1  0.80331100  0.10845500  0.67482200  1
  C  C1182  1  0.71898700  0.05784190  0.67107500  1
  C  C1183  1  0.72290500  0.09010040  0.68566500  1
  N  N1184  1  0.82850000  0.08412950  0.69279200  1
  N  N1185  1  0.84036900  0.04632590  0.74335900  1
  N  N1186  1  0.69307300  0.12513100  0.69231700  1
  N  N1187  1  0.74838000  0.02423250  0.65644400  1
  O  O1188  1  0.85114700  0.01200400  0.73236200  1
  H  H1189  1  0.81366500  0.11745200  0.65427800  1
  N  N1190  1  0.74613100  0.13354600  0.64930600  1
  C  C1191  1  0.89107200  0.06844850  0.50130700  1
  C  C1192  1  0.89130200  0.06722180  0.55937000  1
  O  O1193  1  0.88338500  0.07698730  0.60577400  1
  O  O1194  1  0.89156800  0.06619710  0.60585800  1
  Zn  Zn1195  1  0.86972900  0.09381210  0.68766500  1
  Zn  Zn1196  1  0.91000900  0.05254380  0.68506400  1
  O  O1197  1  0.88180700  0.12020400  0.65353500  1
  O  O1198  1  0.89577500  0.02481150  0.70250600  1
  H  H1199  1  0.95226800  0.03142140  0.61961100  1
  C  C1200  1  0.96087100  0.07574230  0.70203200  1
  C  C1201  1  0.99700800  0.06966270  0.70362700  1
  C  C1202  1  0.99851900  0.04521360  0.63770500  1
  C  C1203  1  0.96461600  0.04369000  0.64030000  1
  N  N1204  1  0.94698700  0.05891560  0.67449100  1
  N  N1205  1  0.94176900  0.08988270  0.73478300  1
  O  O1206  1  0.90983900  0.11462300  0.73320400  1
  O  O1207  1  0.94796900  0.00466996  0.68561000  1
  O  O1208  1  0.97681300  0.12605600  0.50147400  1
  O  O1209  1  0.84424000  0.14674500  0.69830300  1
  C  C1210  1  0.85646800  0.15045100  0.66450400  1
  C  C1211  1  0.92621600  0.00005459  0.70867000  1
  H  H1212  1  0.08750410  0.15300000  0.64238400  1
  H  H1213  1  0.18690600  0.16556300  0.59346000  1
  H  H1214  1  0.21387700  0.20789700  0.57993300  1
  H  H1215  1  0.08184070  0.30528600  0.51246600  1
  H  H1216  1  0.19305300  0.20509700  0.70926600  1
  H  H1217  1  0.21056200  0.23898000  0.74639400  1
  C  C1218  1  0.21044800  0.20755700  0.60700900  1
  C  C1219  1  0.18878500  0.18301700  0.65384700  1
  C  C1220  1  0.22384100  0.25366800  0.73956200  1
  C  C1221  1  0.22920200  0.25206000  0.70267300  1
  C  C1222  1  0.21546300  0.23033600  0.67393200  1
  C  C1223  1  0.22219000  0.23009400  0.63620000  1
  C  C1224  1  0.19663900  0.20821900  0.68202800  1
  C  C1225  1  0.19447400  0.18414500  0.61511000  1
  C  C1226  1  0.23856000  0.25399300  0.62832800  1
  H  H1227  1  0.26112300  0.22844500  0.58350800  1
  H  H1228  1  0.25061200  0.28447800  0.55688700  1
  H  H1229  1  0.27784300  0.28444900  0.59708100  1
  C  C1230  1  0.25232200  0.28647400  0.58589800  1
  N  N1231  1  0.24453300  0.25486000  0.59211300  1
  H  H1232  1  0.26222100  0.29193800  0.65309800  1
  H  H1233  1  0.23290800  0.31064300  0.59955400  1
  C  C1234  1  0.25955200  0.33338600  0.70866600  1
  C  C1235  1  0.24756100  0.27437500  0.69272300  1
  C  C1236  1  0.24971400  0.27548100  0.65837400  1
  C  C1237  1  0.26039400  0.29782500  0.72006100  1
  H  H1238  1  0.42083600  0.15300100  0.64238400  1
  H  H1239  1  0.52023900  0.16556400  0.59345400  1
  H  H1240  1  0.54721000  0.20789700  0.57993200  1
  H  H1241  1  0.59445600  0.22844500  0.58350800  1
  H  H1242  1  0.58394500  0.28447800  0.55688700  1
  C  C1243  1  0.58565500  0.28647400  0.58589800  1
  N  N1244  1  0.57786600  0.25486000  0.59211300  1
  H  H1245  1  0.41517600  0.30528500  0.51246700  1
  H  H1246  1  0.52638600  0.20509800  0.70926600  1
  H  H1247  1  0.54389500  0.23898100  0.74639400  1
  H  H1248  1  0.56624200  0.31064300  0.59955400  1
  C  C1249  1  0.54378200  0.20755800  0.60700600  1
  C  C1250  1  0.52212100  0.18303100  0.65382700  1
  C  C1251  1  0.55717400  0.25366800  0.73956200  1
  C  C1252  1  0.56253500  0.25206000  0.70267300  1
  C  C1253  1  0.58089400  0.27437500  0.69272200  1
  C  C1254  1  0.54879700  0.23033700  0.67393200  1
  C  C1255  1  0.55552300  0.23009400  0.63619900  1
  C  C1256  1  0.57189400  0.25399200  0.62832700  1
  C  C1257  1  0.58304700  0.27548100  0.65837300  1
  C  C1258  1  0.52997300  0.20822200  0.68202600  1
  C  C1259  1  0.52780900  0.18414900  0.61510200  1
  C  C1260  1  0.59372500  0.29782700  0.72006000  1
  H  H1261  1  0.61117600  0.28444900  0.59708100  1
  H  H1262  1  0.74850800  0.30528500  0.51246600  1
  H  H1263  1  0.59555500  0.29193700  0.65309700  1
  C  C1264  1  0.59288800  0.33338600  0.70866500  1
  H  H1265  1  0.75417300  0.15300000  0.64238600  1
  H  H1266  1  0.85357300  0.16556400  0.59345700  1
  H  H1267  1  0.88054400  0.20789700  0.57993300  1
  H  H1268  1  0.92778900  0.22844500  0.58350800  1
  H  H1269  1  0.91727800  0.28447800  0.55688700  1
  H  H1270  1  0.94451000  0.28444900  0.59708100  1
  C  C1271  1  0.91898900  0.28647400  0.58589900  1
  N  N1272  1  0.91120000  0.25486100  0.59211300  1
  H  H1273  1  0.85971900  0.20509500  0.70926500  1
  H  H1274  1  0.87722800  0.23898000  0.74639400  1
  H  H1275  1  0.92888800  0.29193900  0.65309900  1
  H  H1276  1  0.89957500  0.31064300  0.59955400  1
  C  C1277  1  0.92622200  0.33338400  0.70867200  1
  C  C1278  1  0.87711500  0.20755900  0.60700800  1
  C  C1279  1  0.85545300  0.18301700  0.65383900  1
  C  C1280  1  0.89050700  0.25366700  0.73956200  1
  C  C1281  1  0.89586800  0.25206000  0.70267400  1
  C  C1282  1  0.91422900  0.27437400  0.69272400  1
  C  C1283  1  0.88213000  0.23033600  0.67393200  1
  C  C1284  1  0.88885700  0.23009500  0.63620000  1
  C  C1285  1  0.90522700  0.25399300  0.62832800  1
  C  C1286  1  0.91638000  0.27548200  0.65837500  1
  C  C1287  1  0.86330600  0.20821800  0.68202600  1
  C  C1288  1  0.86114000  0.18414700  0.61510600  1
  C  C1289  1  0.92706300  0.29782200  0.72006300  1
  H  H1290  1  0.00359998  0.35655100  0.58199200  1
  H  H1291  1  0.07268710  0.38672400  0.50732700  1
  O  O1292  1  0.18447900  0.34534300  0.73236400  1
  H  H1293  1  0.14699500  0.45078800  0.65428000  1
  H  H1294  1  0.10714600  0.38588700  0.73055000  1
  H  H1295  1  0.01133420  0.40946100  0.72843900  1
  H  H1296  1  0.01281690  0.46105700  0.71567300  1
  H  H1297  1  0.00634576  0.46341200  0.66917100  1
  H  H1298  1  0.10078900  0.34515400  0.67926900  1
  H  H1299  1  0.09862830  0.36187100  0.63780500  1
  H  H1300  1  0.02966510  0.38539300  0.59944600  1
  H  H1301  1  0.06912790  0.45207700  0.62977200  1
  H  H1302  1  0.08750530  0.48633400  0.64238500  1
  C  C1303  1  0.15051500  0.40075700  0.71755000  1
  C  C1304  1  0.11539600  0.40224000  0.71571900  1
  C  C1305  1  0.01581000  0.39042300  0.67040200  1
  C  C1306  1  0.09039740  0.42425000  0.69244700  1
  C  C1307  1  0.10098800  0.44712600  0.67577800  1
  C  C1308  1  0.13663500  0.44179700  0.67482800  1
  C  C1309  1  0.05231920  0.39117500  0.67107500  1
  C  C1310  1  0.05623590  0.42343400  0.68566400  1
  N  N1311  1  0.16182200  0.41746600  0.69279400  1
  N  N1312  1  0.17370100  0.37966600  0.74335700  1
  N  N1313  1  0.02640580  0.45846500  0.69231700  1
  N  N1314  1  0.08171250  0.35756600  0.65644400  1
  N  N1315  1  0.01359270  0.37139800  0.60291600  1
  N  N1316  1  0.07946010  0.46688200  0.64930400  1
  C  C1317  1  0.22437200  0.40179100  0.50130400  1
  H  H1318  1  0.18690600  0.49889400  0.59346200  1
  C  C1319  1  0.22459700  0.40058300  0.55934000  1
  O  O1320  1  0.31014700  0.45938900  0.50147400  1
  H  H1321  1  0.33693400  0.35655100  0.58199100  1
  O  O1322  1  0.28130700  0.33799400  0.68559800  1
  O  O1323  1  0.21673800  0.41027500  0.60577700  1
  O  O1324  1  0.22481700  0.39959500  0.60586200  1
  O  O1325  1  0.17757700  0.48005200  0.69829900  1
  Zn  Zn1326  1  0.24335700  0.38587100  0.68506800  1
  Zn  Zn1327  1  0.20299400  0.42721300  0.68766100  1
  C  C1328  1  0.18982100  0.48377400  0.66452000  1
  O  O1329  1  0.21516000  0.45353000  0.65356000  1
  O  O1330  1  0.22910600  0.35813900  0.70249900  1
  H  H1331  1  0.28559100  0.36476400  0.61960700  1
  C  C1332  1  0.29420600  0.40907600  0.70202500  1
  C  C1333  1  0.33034400  0.40299600  0.70362400  1
  C  C1334  1  0.33185400  0.37854700  0.63770400  1
  C  C1335  1  0.29794700  0.37702500  0.64029600  1
  N  N1336  1  0.28032000  0.39224800  0.67448600  1
  N  N1337  1  0.27511100  0.42321900  0.73477700  1
  O  O1338  1  0.24317600  0.44795200  0.73319800  1
  H  H1339  1  0.34467100  0.40946100  0.72843900  1
  H  H1340  1  0.34615100  0.46105700  0.71567200  1
  H  H1341  1  0.33968000  0.46341200  0.66917100  1
  H  H1342  1  0.36299900  0.38539300  0.59944400  1
  C  C1343  1  0.34914600  0.39042200  0.67040000  1
  N  N1344  1  0.34692800  0.37139800  0.60291500  1
  H  H1345  1  0.40602300  0.38672500  0.50732800  1
  O  O1346  1  0.51781900  0.34533000  0.73235700  1
  Zn  Zn1347  1  0.53631100  0.42723300  0.68767400  1
  O  O1348  1  0.51090700  0.48007400  0.69829900  1
  H  H1349  1  0.48033600  0.45078400  0.65428000  1
  H  H1350  1  0.44048100  0.38588900  0.73055000  1
  H  H1351  1  0.43412300  0.34515400  0.67927000  1
  H  H1352  1  0.43196300  0.36187100  0.63780400  1
  H  H1353  1  0.40246400  0.45207800  0.62977700  1
  H  H1354  1  0.42084300  0.48633300  0.64238700  1
  C  C1355  1  0.48385400  0.40074600  0.71754400  1
  C  C1356  1  0.44873500  0.40223700  0.71571700  1
  C  C1357  1  0.42373700  0.42424900  0.69244900  1
  C  C1358  1  0.43433000  0.44712200  0.67577700  1
  C  C1359  1  0.46997500  0.44178700  0.67481900  1
  C  C1360  1  0.38565600  0.39117500  0.67107500  1
  C  C1361  1  0.38957300  0.42343400  0.68566500  1
  N  N1362  1  0.49515600  0.41745500  0.69278100  1
  N  N1363  1  0.50703600  0.37965200  0.74335800  1
  N  N1364  1  0.35974100  0.45846500  0.69231700  1
  N  N1365  1  0.41504700  0.35756600  0.65644400  1
  N  N1366  1  0.41280100  0.46687900  0.64930700  1
  O  O1367  1  0.56244700  0.35814800  0.70250600  1
  C  C1368  1  0.55773700  0.40178000  0.50130500  1
  H  H1369  1  0.52023900  0.49889500  0.59346100  1
  C  C1370  1  0.55790000  0.40060900  0.55935000  1
  O  O1371  1  0.64347900  0.45938800  0.50147300  1
  H  H1372  1  0.67026700  0.35655100  0.58199000  1
  O  O1373  1  0.61464200  0.33799400  0.68559800  1
  C  C1374  1  0.52317000  0.48377000  0.66451900  1
  O  O1375  1  0.55003500  0.41031200  0.60576200  1
  O  O1376  1  0.55817700  0.39959600  0.60585500  1
  O  O1377  1  0.54851100  0.45352400  0.65355600  1
  Zn  Zn1378  1  0.57668100  0.38588800  0.68506800  1
  H  H1379  1  0.61892500  0.36476700  0.61960700  1
  C  C1380  1  0.62754000  0.40907700  0.70203000  1
  C  C1381  1  0.66367700  0.40299700  0.70362600  1
  C  C1382  1  0.66518800  0.37854800  0.63770300  1
  C  C1383  1  0.63128300  0.37702600  0.64029700  1
  N  N1384  1  0.61365900  0.39224700  0.67449000  1
  N  N1385  1  0.60843900  0.42321400  0.73478200  1
  O  O1386  1  0.57650400  0.44794600  0.73320600  1
  H  H1387  1  0.67800400  0.40946100  0.72843900  1
  H  H1388  1  0.67948500  0.46105700  0.71567200  1
  H  H1389  1  0.67301400  0.46341100  0.66917100  1
  H  H1390  1  0.69633300  0.38539300  0.59944400  1
  C  C1391  1  0.68248000  0.39042200  0.67040100  1
  C  C1392  1  0.71898800  0.39117500  0.67107400  1
  C  C1393  1  0.72290600  0.42343300  0.68566500  1
  N  N1394  1  0.69307500  0.45846400  0.69231700  1
  N  N1395  1  0.74838100  0.35756500  0.65644400  1
  N  N1396  1  0.68026000  0.37139800  0.60291300  1
  C  C1397  1  0.89108200  0.40174600  0.50130100  1
  H  H1398  1  0.85357200  0.49889500  0.59346000  1
  H  H1399  1  0.73935500  0.38672500  0.50732700  1
  C  C1400  1  0.89119400  0.40060600  0.55934700  1
  O  O1401  1  0.85114800  0.34533800  0.73236500  1
  O  O1402  1  0.88326900  0.41040800  0.60572500  1
  O  O1403  1  0.89157800  0.39954300  0.60585700  1
  Zn  Zn1404  1  0.91002200  0.38588200  0.68507300  1
  Zn  Zn1405  1  0.86969300  0.42717500  0.68765600  1
  C  C1406  1  0.85649400  0.48377000  0.66452100  1
  O  O1407  1  0.88183300  0.45352400  0.65355400  1
  O  O1408  1  0.84425000  0.48005200  0.69830200  1
  O  O1409  1  0.89577800  0.35814000  0.70250800  1
  H  H1410  1  0.81366800  0.45078400  0.65427900  1
  H  H1411  1  0.77381600  0.38588700  0.73055100  1
  H  H1412  1  0.76745600  0.34515400  0.67927000  1
  H  H1413  1  0.76529600  0.36187100  0.63780400  1
  H  H1414  1  0.73579600  0.45207800  0.62977600  1
  H  H1415  1  0.75417500  0.48633300  0.64238700  1
  C  C1416  1  0.81718600  0.40075300  0.71754900  1
  C  C1417  1  0.78206800  0.40223800  0.71571900  1
  C  C1418  1  0.75706900  0.42424800  0.69244800  1
  C  C1419  1  0.76766100  0.44712300  0.67577700  1
  C  C1420  1  0.80330600  0.44179200  0.67482300  1
  N  N1421  1  0.82849000  0.41746300  0.69279300  1
  N  N1422  1  0.84037200  0.37966100  0.74335900  1
  N  N1423  1  0.74613200  0.46687900  0.64930600  1
  O  O1424  1  0.97681300  0.45938900  0.50147400  1
  O  O1425  1  0.94797200  0.33799700  0.68560500  1
  O  O1426  1  0.90984300  0.44796200  0.73319700  1
  H  H1427  1  0.95226800  0.36475200  0.61961100  1
  C  C1428  1  0.96087200  0.40907400  0.70203000  1
  C  C1429  1  0.99700800  0.40299600  0.70362600  1
  C  C1430  1  0.99851900  0.37854800  0.63770500  1
  C  C1431  1  0.96461500  0.37702300  0.64029900  1
  N  N1432  1  0.94698700  0.39224800  0.67448800  1
  N  N1433  1  0.94177300  0.42321800  0.73478000  1
  H  H1434  1  0.08184090  0.63861900  0.51246600  1
  C  C1435  1  0.18879500  0.51634300  0.65384900  1
  C  C1436  1  0.19447700  0.51747500  0.61511200  1
  H  H1437  1  0.21387500  0.54123000  0.57993400  1
  H  H1438  1  0.26112300  0.56177800  0.58350800  1
  H  H1439  1  0.25061200  0.61781100  0.55688700  1
  C  C1440  1  0.25232200  0.61980700  0.58589800  1
  N  N1441  1  0.24453300  0.58819300  0.59211300  1
  H  H1442  1  0.19305200  0.53843200  0.70926800  1
  C  C1443  1  0.19664000  0.54155200  0.68203000  1
  H  H1444  1  0.21056200  0.57231400  0.74639500  1
  H  H1445  1  0.26222300  0.62526900  0.65309700  1
  H  H1446  1  0.23290900  0.64397600  0.59955400  1
  C  C1447  1  0.25954700  0.66672300  0.70866600  1
  C  C1448  1  0.21044700  0.54089000  0.60700900  1
  C  C1449  1  0.22384100  0.58700200  0.73956200  1
  C  C1450  1  0.22920100  0.58539400  0.70267300  1
  C  C1451  1  0.24755900  0.60770900  0.69272200  1
  C  C1452  1  0.21546300  0.56366900  0.67393300  1
  C  C1453  1  0.22218900  0.56342700  0.63620000  1
  C  C1454  1  0.23856000  0.58732500  0.62832700  1
  C  C1455  1  0.24971400  0.60881400  0.65837400  1
  C  C1456  1  0.26038900  0.63116300  0.72005900  1
  O  O1457  1  0.22910500  0.69147900  0.70249900  1
  H  H1458  1  0.10078900  0.67848800  0.67927000  1
  N  N1459  1  0.08171310  0.69089900  0.65644400  1
  O  O1460  1  0.18447900  0.67867000  0.73236300  1
  H  H1461  1  0.27784300  0.61778200  0.59708000  1
  H  H1462  1  0.41517400  0.63861900  0.51246600  1
  O  O1463  1  0.28130200  0.67133400  0.68560500  1
  H  H1464  1  0.43412200  0.67848800  0.67927000  1
  N  N1465  1  0.41504600  0.69089900  0.65644400  1
  C  C1466  1  0.52213400  0.51633800  0.65384600  1
  C  C1467  1  0.52780800  0.51747600  0.61511000  1
  H  H1468  1  0.54720900  0.54123000  0.57993500  1
  H  H1469  1  0.59445600  0.56177800  0.58350800  1
  H  H1470  1  0.58394500  0.61781100  0.55688700  1
  H  H1471  1  0.61117600  0.61778200  0.59708000  1
  C  C1472  1  0.58565500  0.61980700  0.58589800  1
  N  N1473  1  0.57786600  0.58819300  0.59211300  1
  H  H1474  1  0.52638500  0.53842800  0.70926800  1
  C  C1475  1  0.52997400  0.54154800  0.68202900  1
  H  H1476  1  0.54389500  0.57231400  0.74639400  1
  H  H1477  1  0.59555700  0.62526800  0.65309700  1
  H  H1478  1  0.56624200  0.64397600  0.59955400  1
  C  C1479  1  0.59287500  0.66672400  0.70866200  1
  C  C1480  1  0.54377900  0.54089100  0.60701000  1
  C  C1481  1  0.55717400  0.58700100  0.73956200  1
  C  C1482  1  0.56253400  0.58539400  0.70267300  1
  C  C1483  1  0.58089300  0.60770900  0.69272200  1
  C  C1484  1  0.54879600  0.56366800  0.67393300  1
  C  C1485  1  0.55552200  0.56342600  0.63620100  1
  C  C1486  1  0.57189300  0.58732500  0.62832800  1
  C  C1487  1  0.58304800  0.60881300  0.65837300  1
  C  C1488  1  0.59372200  0.63116300  0.72005900  1
  O  O1489  1  0.61463100  0.67133200  0.68559800  1
  O  O1490  1  0.56243000  0.69147700  0.70249400  1
  O  O1491  1  0.51780800  0.67867400  0.73236500  1
  C  C1492  1  0.85546300  0.51634100  0.65384800  1
  C  C1493  1  0.86114200  0.51747600  0.61511000  1
  H  H1494  1  0.74850700  0.63861900  0.51246600  1
  H  H1495  1  0.85971900  0.53842900  0.70926700  1
  H  H1496  1  0.76745600  0.67848800  0.67927000  1
  N  N1497  1  0.74838000  0.69089900  0.65644400  1
  C  C1498  1  0.86330700  0.54155000  0.68202900  1
  H  H1499  1  0.88054300  0.54123000  0.57993400  1
  H  H1500  1  0.92778900  0.56177800  0.58350800  1
  H  H1501  1  0.91727800  0.61781100  0.55688700  1
  H  H1502  1  0.94451000  0.61778200  0.59708100  1
  C  C1503  1  0.91898900  0.61980700  0.58589900  1
  N  N1504  1  0.91120000  0.58819300  0.59211300  1
  H  H1505  1  0.87722800  0.57231400  0.74639400  1
  H  H1506  1  0.92888900  0.62526900  0.65309700  1
  H  H1507  1  0.89957500  0.64397600  0.59955400  1
  C  C1508  1  0.92621800  0.66671700  0.70866500  1
  C  C1509  1  0.87711300  0.54089100  0.60700900  1
  C  C1510  1  0.89050700  0.58700100  0.73956200  1
  C  C1511  1  0.89586800  0.58539300  0.70267300  1
  C  C1512  1  0.91422700  0.60770800  0.69272300  1
  C  C1513  1  0.88212900  0.56366900  0.67393200  1
  C  C1514  1  0.88885600  0.56342700  0.63620000  1
  C  C1515  1  0.90522700  0.58732600  0.62832800  1
  C  C1516  1  0.91638100  0.60881400  0.65837400  1
  C  C1517  1  0.92705900  0.63115900  0.72006100  1
  O  O1518  1  0.94797800  0.67131700  0.68559700  1
  O  O1519  1  0.89577200  0.69147100  0.70249900  1
  O  O1520  1  0.85114600  0.67867000  0.73236400  1
  H  H1521  1  0.00359982  0.68988500  0.58199200  1
  N  N1522  1  0.01359310  0.70473100  0.60291600  1
  H  H1523  1  0.01133580  0.74279400  0.72843900  1
  H  H1524  1  0.02966520  0.71872600  0.59944500  1
  C  C1525  1  0.01581110  0.72375600  0.67040200  1
  C  C1526  1  0.05232050  0.72450800  0.67107500  1
  H  H1527  1  0.01281720  0.79439000  0.71567300  1
  H  H1528  1  0.00634597  0.79674500  0.66917100  1
  N  N1529  1  0.02640660  0.79179800  0.69231700  1
  H  H1530  1  0.10714800  0.71922300  0.73054900  1
  H  H1531  1  0.09862880  0.69520400  0.63780400  1
  N  N1532  1  0.17369900  0.71299200  0.74335900  1
  Zn  Zn1533  1  0.24334400  0.71921700  0.68506300  1
  H  H1534  1  0.18690600  0.83223000  0.59345800  1
  H  H1535  1  0.07268780  0.72005800  0.50732700  1
  C  C1536  1  0.22461900  0.73390700  0.55936600  1
  C  C1537  1  0.22443100  0.73508500  0.50130700  1
  C  C1538  1  0.15052300  0.73408400  0.71754300  1
  C  C1539  1  0.11540200  0.73557200  0.71571500  1
  O  O1540  1  0.21668500  0.74369500  0.60575800  1
  O  O1541  1  0.22492400  0.73288400  0.60586800  1
  Zn  Zn1542  1  0.20301200  0.76054800  0.68769600  1
  C  C1543  1  0.18980600  0.81711700  0.66450700  1
  C  C1544  1  0.18878900  0.84968200  0.65384000  1
  O  O1545  1  0.21514700  0.78687100  0.65354300  1
  O  O1546  1  0.17757500  0.81341400  0.69830900  1
  H  H1547  1  0.14699800  0.78412000  0.65427900  1
  H  H1548  1  0.06912900  0.78541100  0.62977400  1
  H  H1549  1  0.08750610  0.81966600  0.64238600  1
  C  C1550  1  0.09040230  0.75758200  0.69244700  1
  C  C1551  1  0.10099500  0.78045600  0.67577700  1
  C  C1552  1  0.13664300  0.77512300  0.67482100  1
  C  C1553  1  0.05623830  0.75676700  0.68566400  1
  N  N1554  1  0.16183100  0.75079500  0.69278900  1
  N  N1555  1  0.07946470  0.80021300  0.64930600  1
  H  H1556  1  0.33693300  0.68988500  0.58199200  1
  H  H1557  1  0.28559800  0.69809000  0.61961100  1
  C  C1558  1  0.33185300  0.71188100  0.63770500  1
  C  C1559  1  0.29794900  0.71035800  0.64030000  1
  H  H1560  1  0.43196200  0.69520400  0.63780400  1
  N  N1561  1  0.34692700  0.70473100  0.60291600  1
  O  O1562  1  0.31014700  0.79272300  0.50147400  1
  H  H1563  1  0.40602100  0.72005800  0.50732700  1
  C  C1564  1  0.29420300  0.74241200  0.70203100  1
  C  C1565  1  0.33034100  0.73633000  0.70362700  1
  N  N1566  1  0.28032100  0.72558300  0.67449200  1
  H  H1567  1  0.34467000  0.74279400  0.72844000  1
  H  H1568  1  0.36299900  0.71872600  0.59944500  1
  C  C1569  1  0.34914500  0.72375600  0.67040200  1
  C  C1570  1  0.38565300  0.72450800  0.67107500  1
  N  N1571  1  0.27510200  0.75654900  0.73478500  1
  H  H1572  1  0.19305200  0.87176200  0.70926600  1
  C  C1573  1  0.19663900  0.87488400  0.68202700  1
  C  C1574  1  0.19447400  0.85081300  0.61510700  1
  O  O1575  1  0.24316700  0.78128100  0.73321100  1
  H  H1576  1  0.34615000  0.79439000  0.71567300  1
  H  H1577  1  0.33967900  0.79674600  0.66917000  1
  C  C1578  1  0.38957000  0.75676700  0.68566400  1
  N  N1579  1  0.35973900  0.79179800  0.69231700  1
  Zn  Zn1580  1  0.57670200  0.71919600  0.68507000  1
  H  H1581  1  0.44047900  0.71922100  0.73054900  1
  N  N1582  1  0.50703200  0.71299600  0.74335800  1
  C  C1583  1  0.55781000  0.73505000  0.50131000  1
  H  H1584  1  0.52024000  0.83222900  0.59346000  1
  C  C1585  1  0.55784600  0.73395500  0.55933900  1
  C  C1586  1  0.48385100  0.73408800  0.71754800  1
  C  C1587  1  0.44873000  0.73557400  0.71571800  1
  O  O1588  1  0.54997300  0.74370100  0.60574000  1
  O  O1589  1  0.55835300  0.73283300  0.60587600  1
  Zn  Zn1590  1  0.53638900  0.76049900  0.68765300  1
  H  H1591  1  0.52638600  0.87176300  0.70926600  1
  C  C1592  1  0.52313900  0.81711100  0.66451100  1
  C  C1593  1  0.52212100  0.84968200  0.65384500  1
  C  C1594  1  0.52997300  0.87488500  0.68202800  1
  C  C1595  1  0.52780800  0.85081100  0.61510900  1
  O  O1596  1  0.54847800  0.78686500  0.65354800  1
  O  O1597  1  0.51092400  0.81337200  0.69830100  1
  H  H1598  1  0.48032900  0.78411900  0.65427800  1
  H  H1599  1  0.40246100  0.78541000  0.62977200  1
  H  H1600  1  0.42083800  0.81966700  0.64238500  1
  C  C1601  1  0.42373200  0.75758300  0.69244700  1
  C  C1602  1  0.43432400  0.78045900  0.67577800  1
  C  C1603  1  0.46997400  0.77512500  0.67482600  1
  N  N1604  1  0.49516900  0.75078900  0.69279100  1
  N  N1605  1  0.41279400  0.80021500  0.64930500  1
  O  O1606  1  0.57650400  0.78128400  0.73320400  1
  H  H1607  1  0.67026600  0.68988400  0.58199200  1
  H  H1608  1  0.61893200  0.69809000  0.61960900  1
  C  C1609  1  0.66518500  0.71188100  0.63770400  1
  C  C1610  1  0.63128000  0.71035800  0.64029800  1
  H  H1611  1  0.77381500  0.71922200  0.73054900  1
  H  H1612  1  0.76529500  0.69520400  0.63780500  1
  N  N1613  1  0.68025900  0.70473100  0.60291500  1
  O  O1614  1  0.64347900  0.79272200  0.50147300  1
  H  H1615  1  0.73935400  0.72005800  0.50732700  1
  N  N1616  1  0.61365300  0.72558100  0.67448900  1
  C  C1617  1  0.62753600  0.74241100  0.70202700  1
  C  C1618  1  0.66367400  0.73633000  0.70362400  1
  H  H1619  1  0.67800200  0.74279300  0.72843800  1
  H  H1620  1  0.69633200  0.71872600  0.59944600  1
  C  C1621  1  0.78206900  0.73557100  0.71571800  1
  C  C1622  1  0.68247700  0.72375600  0.67040100  1
  C  C1623  1  0.71898700  0.72450800  0.67107500  1
  N  N1624  1  0.60843900  0.75655100  0.73477900  1
  H  H1625  1  0.67948400  0.79439000  0.71567200  1
  H  H1626  1  0.67301300  0.79674500  0.66917100  1
  H  H1627  1  0.73579600  0.78541100  0.62977600  1
  C  C1628  1  0.75707000  0.75758200  0.69244800  1
  C  C1629  1  0.76766300  0.78045500  0.67577800  1
  C  C1630  1  0.72290500  0.75676700  0.68566500  1
  N  N1631  1  0.69307400  0.79179800  0.69231700  1
  N  N1632  1  0.74613400  0.80021200  0.64930700  1
  Zn  Zn1633  1  0.91002700  0.71919500  0.68506400  1
  H  H1634  1  0.95227000  0.69808700  0.61961200  1
  C  C1635  1  0.96461600  0.71035700  0.64029900  1
  N  N1636  1  0.84037200  0.71299200  0.74336100  1
  C  C1637  1  0.89103900  0.73514100  0.50130200  1
  H  H1638  1  0.85357200  0.83222900  0.59346000  1
  C  C1639  1  0.89125900  0.73392300  0.55932700  1
  C  C1640  1  0.96087000  0.74241000  0.70202900  1
  C  C1641  1  0.81718900  0.73408300  0.71754700  1
  N  N1642  1  0.94699000  0.72557500  0.67449100  1
  H  H1643  1  0.75417400  0.81966600  0.64238700  1
  N  N1644  1  0.94177200  0.75655000  0.73478100  1
  O  O1645  1  0.88340400  0.74360800  0.60577700  1
  O  O1646  1  0.89150300  0.73291200  0.60584600  1
  Zn  Zn1647  1  0.86962900  0.76058600  0.68765100  1
  H  H1648  1  0.85971900  0.87176100  0.70926700  1
  C  C1649  1  0.85649600  0.81710000  0.66451500  1
  C  C1650  1  0.85546200  0.84967300  0.65384600  1
  C  C1651  1  0.86330600  0.87488200  0.68202800  1
  C  C1652  1  0.86114100  0.85081000  0.61511000  1
  O  O1653  1  0.88183600  0.78685400  0.65354200  1
  O  O1654  1  0.84425500  0.81339100  0.69830500  1
  H  H1655  1  0.81366800  0.78411800  0.65428000  1
  C  C1656  1  0.80331000  0.77512200  0.67482300  1
  N  N1657  1  0.82849300  0.75079200  0.69278700  1
  O  O1658  1  0.90983900  0.78128700  0.73320300  1
  C  C1659  1  0.99852000  0.71188200  0.63770500  1
  O  O1660  1  0.97681200  0.79272200  0.50147300  1
  C  C1661  1  0.99700800  0.73633000  0.70362600  1
  H  H1662  1  0.08184090  0.97195300  0.51246600  1
  H  H1663  1  0.21387700  0.87456300  0.57993300  1
  H  H1664  1  0.26112300  0.89511200  0.58350800  1
  H  H1665  1  0.21056100  0.90564700  0.74639400  1
  C  C1666  1  0.21044800  0.87422500  0.60700800  1
  C  C1667  1  0.22384100  0.92033400  0.73956200  1
  C  C1668  1  0.21546300  0.89700300  0.67393200  1
  C  C1669  1  0.22219000  0.89676100  0.63620000  1
  N  N1670  1  0.24453300  0.92152700  0.59211300  1
  H  H1671  1  0.25061200  0.95114400  0.55688700  1
  H  H1672  1  0.27784300  0.95111600  0.59708100  1
  C  C1673  1  0.25232200  0.95314100  0.58589900  1
  C  C1674  1  0.22920200  0.91872700  0.70267300  1
  C  C1675  1  0.23856000  0.92065900  0.62832800  1
  C  C1676  1  0.24756100  0.94104200  0.69272300  1
  H  H1677  1  0.26222300  0.95860400  0.65309800  1
  H  H1678  1  0.23290900  0.97730900  0.59955400  1
  C  C1679  1  0.24971400  0.94214800  0.65837400  1
  C  C1680  1  0.26039200  0.96449400  0.72006000  1
  C  C1681  1  0.54378100  0.87422400  0.60700800  1
  H  H1682  1  0.54389500  0.90564700  0.74639400  1
  H  H1683  1  0.41517400  0.97195300  0.51246600  1
  H  H1684  1  0.54721000  0.87456300  0.57993300  1
  H  H1685  1  0.59445600  0.89511200  0.58350800  1
  C  C1686  1  0.55717400  0.92033500  0.73956200  1
  C  C1687  1  0.54879600  0.89700300  0.67393200  1
  C  C1688  1  0.55552300  0.89676100  0.63620000  1
  N  N1689  1  0.57786600  0.92152700  0.59211300  1
  H  H1690  1  0.58394500  0.95114400  0.55688700  1
  H  H1691  1  0.61117600  0.95111600  0.59708100  1
  C  C1692  1  0.58565500  0.95314100  0.58589900  1
  C  C1693  1  0.56253500  0.91872700  0.70267300  1
  C  C1694  1  0.57189400  0.92065900  0.62832800  1
  C  C1695  1  0.58089400  0.94104200  0.69272300  1
  H  H1696  1  0.59555600  0.95860400  0.65309800  1
  H  H1697  1  0.56624200  0.97730900  0.59955400  1
  C  C1698  1  0.58304800  0.94214800  0.65837400  1
  C  C1699  1  0.59372500  0.96449500  0.72005900  1
  H  H1700  1  0.88054300  0.87456300  0.57993400  1
  H  H1701  1  0.87722800  0.90564700  0.74639400  1
  C  C1702  1  0.87711300  0.87422400  0.60700900  1
  C  C1703  1  0.89050700  0.92033400  0.73956200  1
  C  C1704  1  0.88212900  0.89700200  0.67393300  1
  C  C1705  1  0.88885600  0.89676000  0.63620000  1
  H  H1706  1  0.74850800  0.97195200  0.51246600  1
  C  C1707  1  0.89586800  0.91872700  0.70267300  1
  H  H1708  1  0.92778900  0.89511200  0.58350800  1
  N  N1709  1  0.91119900  0.92152700  0.59211300  1
  H  H1710  1  0.91727800  0.95114400  0.55688700  1
  H  H1711  1  0.94450900  0.95111600  0.59708100  1
  C  C1712  1  0.91898800  0.95314000  0.58589900  1
  C  C1713  1  0.90522700  0.92065900  0.62832800  1
  C  C1714  1  0.91422700  0.94104100  0.69272300  1
  H  H1715  1  0.92888900  0.95860400  0.65309800  1
  H  H1716  1  0.89957500  0.97730900  0.59955400  1
  C  C1717  1  0.91638100  0.94214800  0.65837400  1
  C  C1718  1  0.92705900  0.96449300  0.72006100  1
  H  H1719  1  0.06675380  0.12103300  0.88120000  1
  H  H1720  1  0.12732800  0.07236610  0.88876100  1
  C  C1721  1  0.02090930  0.04612580  0.98432500  1
  C  C1722  1  0.03549110  0.00747399  0.98450700  1
  C  C1723  1  0.08553440  0.16537100  0.90285700  1
  C  C1724  1  0.09054120  0.12776100  0.89251100  1
  C  C1725  1  0.12570900  0.09928800  0.89546200  1
  C  C1726  1  0.04659100  0.06401940  0.99114000  1
  O  O1727  1  0.04231720  0.09192210  0.97674800  1
  O  O1728  1  0.28886200  0.06985150  0.76462400  1
  O  O1729  1  0.16291900  0.05974750  0.78074700  1
  O  O1730  1  0.21563800  0.08213250  0.76704100  1
  O  O1731  1  0.22447700  0.07524140  0.76558300  1
  H  H1732  1  0.27201500  0.05826460  0.90293200  1
  H  H1733  1  0.17530300  0.08476530  0.96808600  1
  H  H1734  1  0.17352700  0.15269200  0.93223500  1
  H  H1735  1  0.27354100  0.11791500  0.96548100  1
  C  C1736  1  0.22300100  0.07531320  0.81239100  1
  C  C1737  1  0.31497500  0.06460780  0.97706100  1
  C  C1738  1  0.29139000  0.04363210  0.97051700  1
  C  C1739  1  0.30829500  0.00479185  0.96721700  1
  C  C1740  1  0.24634500  0.06404720  0.91018900  1
  C  C1741  1  0.22118500  0.07539880  0.87014500  1
  C  C1742  1  0.19580800  0.08373100  0.90984800  1
  C  C1743  1  0.19886100  0.07935470  0.96149400  1
  C  C1744  1  0.25032200  0.06056430  0.96220400  1
  C  C1745  1  0.15036100  0.14597700  0.91993000  1
  C  C1746  1  0.15670600  0.10906900  0.90545300  1
  C  C1747  1  0.29763400  0.10569800  0.98020200  1
  O  O1748  1  0.49625100  0.05974510  0.78074500  1
  C  C1749  1  0.36882700  0.00747286  0.98450800  1
  H  H1750  1  0.50862100  0.08477770  0.96808500  1
  H  H1751  1  0.40008600  0.12103300  0.88120000  1
  H  H1752  1  0.46066000  0.07236680  0.88876100  1
  C  C1753  1  0.35424800  0.04612470  0.98432500  1
  C  C1754  1  0.48369300  0.14597900  0.91992800  1
  C  C1755  1  0.41886700  0.16537200  0.90285700  1
  C  C1756  1  0.42387300  0.12776200  0.89251100  1
  C  C1757  1  0.45904100  0.09928950  0.89546000  1
  C  C1758  1  0.49003900  0.10907100  0.90544700  1
  C  C1759  1  0.37992700  0.06401930  0.99114100  1
  O  O1760  1  0.37565100  0.09192220  0.97674800  1
  O  O1761  1  0.62219400  0.06985060  0.76462500  1
  O  O1762  1  0.54890200  0.08228450  0.76705500  1
  O  O1763  1  0.55782800  0.07524520  0.76557900  1
  C  C1764  1  0.52914200  0.08372990  0.90985300  1
  C  C1765  1  0.53219200  0.07935030  0.96150400  1
  H  H1766  1  0.60534000  0.05826420  0.90293900  1
  H  H1767  1  0.50685900  0.15269300  0.93223500  1
  H  H1768  1  0.60687200  0.11791700  0.96548000  1
  C  C1769  1  0.55629900  0.07533810  0.81237900  1
  C  C1770  1  0.64830200  0.06460880  0.97706500  1
  C  C1771  1  0.62472100  0.04362920  0.97052200  1
  C  C1772  1  0.64162500  0.00479202  0.96722100  1
  C  C1773  1  0.57967200  0.06402940  0.91018400  1
  C  C1774  1  0.55452100  0.07536620  0.87013300  1
  C  C1775  1  0.58366300  0.06054860  0.96219600  1
  C  C1776  1  0.63096300  0.10569800  0.98020300  1
  C  C1777  1  0.68757600  0.04612630  0.98432500  1
  C  C1778  1  0.70215700  0.00747445  0.98450700  1
  O  O1779  1  0.82957100  0.05973590  0.78074300  1
  C  C1780  1  0.71325700  0.06401960  0.99114000  1
  H  H1781  1  0.84195300  0.08478760  0.96808100  1
  H  H1782  1  0.84019000  0.15269700  0.93223600  1
  H  H1783  1  0.73342100  0.12103300  0.88120100  1
  H  H1784  1  0.79399700  0.07236580  0.88876100  1
  C  C1785  1  0.86248200  0.08375430  0.90985200  1
  C  C1786  1  0.86552900  0.07937840  0.96151000  1
  C  C1787  1  0.81702300  0.14598500  0.91992800  1
  C  C1788  1  0.75220000  0.16537100  0.90285700  1
  C  C1789  1  0.75720800  0.12776100  0.89251100  1
  C  C1790  1  0.79237700  0.09928990  0.89545900  1
  C  C1791  1  0.82337100  0.10908200  0.90544100  1
  O  O1792  1  0.70898400  0.09192210  0.97674700  1
  O  O1793  1  0.95550600  0.06984320  0.76462700  1
  O  O1794  1  0.88219500  0.08227850  0.76710000  1
  O  O1795  1  0.89132500  0.07496220  0.76554700  1
  C  C1796  1  0.88804800  0.07512690  0.87011900  1
  C  C1797  1  0.88931200  0.07569550  0.81237100  1
  H  H1798  1  0.93868000  0.05823510  0.90293200  1
  H  H1799  1  0.94020600  0.11791600  0.96548000  1
  C  C1800  1  0.98163300  0.06460840  0.97706400  1
  C  C1801  1  0.95805100  0.04362960  0.97052400  1
  C  C1802  1  0.97495700  0.00479207  0.96722100  1
  C  C1803  1  0.91301200  0.06403160  0.91018800  1
  C  C1804  1  0.91699900  0.06054340  0.96219200  1
  C  C1805  1  0.96429700  0.10569800  0.98020200  1
  H  H1806  1  0.02454230  0.29116400  0.97547600  1
  H  H1807  1  0.04367840  0.19324300  0.86633400  1
  H  H1808  1  0.02781220  0.19337400  0.90640600  1
  C  C1809  1  0.01261270  0.32098900  0.97592100  1
  N  N1810  1  0.05258190  0.19215700  0.89768100  1
  C  C1811  1  0.03549420  0.34080600  0.98450800  1
  C  C1812  1  0.11596900  0.17471300  0.91742300  1
  H  H1813  1  0.22883600  0.27772200  0.79141600  1
  C  C1814  1  0.23569800  0.27603100  0.76654000  1
  O  O1815  1  0.08528140  0.23960900  0.92974500  1
  H  H1816  1  0.08889680  0.30362500  0.96790100  1
  H  H1817  1  0.13954200  0.21579100  0.93909700  1
  C  C1818  1  0.11440100  0.21137900  0.92943600  1
  N  N1819  1  0.07183460  0.32307200  0.98979900  1
  C  C1820  1  0.44930200  0.17471400  0.91742200  1
  H  H1821  1  0.25841800  0.31600700  0.77619700  1
  C  C1822  1  0.25375400  0.29753300  0.75757400  1
  H  H1823  1  0.26654100  0.32047400  0.97454700  1
  H  H1824  1  0.27791700  0.31300100  0.92886500  1
  N  N1825  1  0.28925200  0.31634600  0.95885700  1
  C  C1826  1  0.30829300  0.33812400  0.96722100  1
  H  H1827  1  0.35787100  0.29116800  0.97547500  1
  H  H1828  1  0.42222800  0.30362600  0.96790100  1
  H  H1829  1  0.37701200  0.19324300  0.86633400  1
  H  H1830  1  0.36114500  0.19337400  0.90640600  1
  C  C1831  1  0.34594200  0.32099100  0.97592100  1
  C  C1832  1  0.44773400  0.21138000  0.92943700  1
  N  N1833  1  0.40516400  0.32307300  0.98979800  1
  N  N1834  1  0.38591500  0.19215800  0.89768100  1
  O  O1835  1  0.41861500  0.23961000  0.92974500  1
  C  C1836  1  0.36882400  0.34080800  0.98450700  1
  H  H1837  1  0.56217000  0.27772200  0.79141600  1
  C  C1838  1  0.58708700  0.29753300  0.75757300  1
  C  C1839  1  0.56903200  0.27603100  0.76654000  1
  H  H1840  1  0.59987500  0.32047400  0.97454700  1
  H  H1841  1  0.47287600  0.21579200  0.93909700  1
  C  C1842  1  0.78263300  0.17471500  0.91742300  1
  H  H1843  1  0.59175200  0.31600800  0.77619700  1
  H  H1844  1  0.61125000  0.31300100  0.92886600  1
  N  N1845  1  0.62258600  0.31634300  0.95885800  1
  C  C1846  1  0.64162400  0.33812500  0.96722200  1
  H  H1847  1  0.69120500  0.29116800  0.97547400  1
  H  H1848  1  0.75556200  0.30362600  0.96790100  1
  H  H1849  1  0.71034500  0.19324300  0.86633400  1
  H  H1850  1  0.69447900  0.19337400  0.90640600  1
  H  H1851  1  0.80620900  0.21579200  0.93909700  1
  C  C1852  1  0.67927500  0.32099200  0.97592000  1
  C  C1853  1  0.78106700  0.21138000  0.92943700  1
  N  N1854  1  0.73849800  0.32307300  0.98979800  1
  N  N1855  1  0.71924800  0.19215700  0.89768000  1
  O  O1856  1  0.75194800  0.23961000  0.92974500  1
  C  C1857  1  0.70215700  0.34080800  0.98450700  1
  H  H1858  1  0.92508500  0.31600600  0.77619900  1
  H  H1859  1  0.89550200  0.27772200  0.79141600  1
  C  C1860  1  0.92042100  0.29753000  0.75757500  1
  C  C1861  1  0.90236500  0.27603000  0.76654100  1
  H  H1862  1  0.93321200  0.32047300  0.97454600  1
  H  H1863  1  0.94458400  0.31300200  0.92886700  1
  N  N1864  1  0.95592400  0.31634000  0.95885700  1
  C  C1865  1  0.97496200  0.33812100  0.96721900  1
  C  C1866  1  0.02091200  0.37945800  0.98432400  1
  O  O1867  1  0.16292100  0.39307800  0.78074700  1
  C  C1868  1  0.04659270  0.39735300  0.99114000  1
  H  H1869  1  0.17529400  0.41810900  0.96808800  1
  H  H1870  1  0.06675280  0.45436700  0.88120000  1
  H  H1871  1  0.12732700  0.40570000  0.88876100  1
  H  H1872  1  0.04367840  0.52657600  0.86633400  1
  H  H1873  1  0.02781200  0.52670700  0.90640600  1
  C  C1874  1  0.19886600  0.41267100  0.96150500  1
  C  C1875  1  0.15036000  0.47931100  0.91992800  1
  C  C1876  1  0.11596800  0.50804700  0.91742200  1
  C  C1877  1  0.08553350  0.49870500  0.90285700  1
  C  C1878  1  0.09053960  0.46109600  0.89251100  1
  C  C1879  1  0.12570700  0.43262300  0.89546000  1
  C  C1880  1  0.15670600  0.44240300  0.90545000  1
  N  N1881  1  0.05258140  0.52549100  0.89768100  1
  O  O1882  1  0.04231790  0.42525600  0.97674800  1
  C  C1883  1  0.19580800  0.41706000  0.90985700  1
  C  C1884  1  0.29139200  0.37696100  0.97051900  1
  C  C1885  1  0.35424300  0.37946000  0.98432500  1
  O  O1886  1  0.28886500  0.40318500  0.76462400  1
  O  O1887  1  0.21566800  0.41544300  0.76703200  1
  O  O1888  1  0.22447400  0.40857500  0.76557900  1
  C  C1889  1  0.37992400  0.39735300  0.99114000  1
  C  C1890  1  0.31497000  0.39794200  0.97706400  1
  C  C1891  1  0.25033800  0.39388000  0.96219400  1
  H  H1892  1  0.17352600  0.48602600  0.93223500  1
  H  H1893  1  0.27200700  0.39160000  0.90293800  1
  H  H1894  1  0.27353900  0.45125000  0.96548000  1
  C  C1895  1  0.22297900  0.40866400  0.81239000  1
  C  C1896  1  0.24633800  0.39737100  0.91018300  1
  C  C1897  1  0.22118300  0.40873500  0.87014600  1
  C  C1898  1  0.29763000  0.43903200  0.98020300  1
  O  O1899  1  0.37565000  0.42525500  0.97674700  1
  O  O1900  1  0.49623300  0.39305600  0.78074200  1
  O  O1901  1  0.54890900  0.41550700  0.76705100  1
  H  H1902  1  0.50861900  0.41811900  0.96807900  1
  H  H1903  1  0.50686000  0.48602800  0.93223600  1
  H  H1904  1  0.40008900  0.45436600  0.88120100  1
  H  H1905  1  0.46066400  0.40569900  0.88876100  1
  H  H1906  1  0.37701200  0.52657600  0.86633400  1
  H  H1907  1  0.36114600  0.52670700  0.90640600  1
  C  C1908  1  0.55630300  0.40865200  0.81239100  1
  C  C1909  1  0.55451800  0.40872600  0.87014400  1
  C  C1910  1  0.52914500  0.41707800  0.90985400  1
  C  C1911  1  0.53220100  0.41269300  0.96151000  1
  C  C1912  1  0.48369400  0.47931400  0.91992600  1
  C  C1913  1  0.44930300  0.50804700  0.91742300  1
  C  C1914  1  0.41886900  0.49870400  0.90285700  1
  C  C1915  1  0.42387600  0.46109400  0.89251100  1
  C  C1916  1  0.45904500  0.43262200  0.89545800  1
  C  C1917  1  0.49004100  0.44240900  0.90543800  1
  N  N1918  1  0.38591600  0.52549000  0.89768100  1
  C  C1919  1  0.62471700  0.37696100  0.97052800  1
  C  C1920  1  0.68757500  0.37946000  0.98432500  1
  O  O1921  1  0.55776500  0.40858000  0.76557100  1
  O  O1922  1  0.62218700  0.40318100  0.76463000  1
  C  C1923  1  0.71325700  0.39735300  0.99114000  1
  C  C1924  1  0.58367000  0.39386800  0.96219100  1
  C  C1925  1  0.57968000  0.39736100  0.91018700  1
  C  C1926  1  0.64829800  0.39794200  0.97706600  1
  H  H1927  1  0.60535200  0.39157600  0.90293800  1
  H  H1928  1  0.60687200  0.45125000  0.96548000  1
  C  C1929  1  0.63096300  0.43903100  0.98020300  1
  H  H1930  1  0.69448000  0.52670600  0.90640600  1
  O  O1931  1  0.70898400  0.42525600  0.97674800  1
  O  O1932  1  0.82958200  0.39307400  0.78074500  1
  O  O1933  1  0.88232400  0.41545200  0.76702600  1
  O  O1934  1  0.89112200  0.40860900  0.76558700  1
  H  H1935  1  0.73342400  0.45436500  0.88120200  1
  C  C1936  1  0.91698700  0.39387900  0.96220100  1
  H  H1937  1  0.71034600  0.52657600  0.86633500  1
  H  H1938  1  0.84196100  0.41811400  0.96808700  1
  H  H1939  1  0.84019500  0.48602700  0.93223600  1
  H  H1940  1  0.79399900  0.40569900  0.88876200  1
  C  C1941  1  0.88963100  0.40868300  0.81238800  1
  C  C1942  1  0.91300500  0.39736300  0.91018200  1
  C  C1943  1  0.88784200  0.40873400  0.87014600  1
  C  C1944  1  0.86246900  0.41706600  0.90985500  1
  C  C1945  1  0.86552800  0.41269000  0.96150200  1
  C  C1946  1  0.81702900  0.47931100  0.91992900  1
  C  C1947  1  0.78263800  0.50804600  0.91742300  1
  C  C1948  1  0.75220300  0.49870300  0.90285700  1
  C  C1949  1  0.75721100  0.46109400  0.89251100  1
  C  C1950  1  0.79237900  0.43262100  0.89546000  1
  C  C1951  1  0.82337400  0.44240400  0.90544900  1
  N  N1952  1  0.71925000  0.52548900  0.89768100  1
  C  C1953  1  0.95805200  0.37696000  0.97052400  1
  H  H1954  1  0.93868400  0.39157500  0.90293100  1
  O  O1955  1  0.95551200  0.40317400  0.76462100  1
  C  C1956  1  0.98163600  0.39793900  0.97706300  1
  H  H1957  1  0.94020700  0.45124700  0.96548000  1
  C  C1958  1  0.96429800  0.43902900  0.98020200  1
  H  H1959  1  0.13954200  0.54912500  0.93909700  1
  C  C1960  1  0.11440100  0.54471300  0.92943700  1
  O  O1961  1  0.08528120  0.57294300  0.92974500  1
  H  H1962  1  0.02453540  0.62450300  0.97547400  1
  H  H1963  1  0.08889520  0.63695900  0.96790100  1
  C  C1964  1  0.01260030  0.65433000  0.97591800  1
  N  N1965  1  0.07183020  0.65640600  0.98979700  1
  C  C1966  1  0.02090900  0.71279200  0.98432500  1
  C  C1967  1  0.03548840  0.67414100  0.98450700  1
  H  H1968  1  0.25841900  0.64934100  0.77619700  1
  H  H1969  1  0.22883700  0.61105600  0.79141500  1
  C  C1970  1  0.25375300  0.63086800  0.75757300  1
  C  C1971  1  0.23569900  0.60936400  0.76654000  1
  H  H1972  1  0.26654200  0.65380700  0.97454700  1
  H  H1973  1  0.27791600  0.64633500  0.92886500  1
  N  N1974  1  0.28925200  0.64967800  0.95885700  1
  H  H1975  1  0.47287600  0.54912500  0.93909700  1
  C  C1976  1  0.44773400  0.54471200  0.92943700  1
  O  O1977  1  0.41861500  0.57294200  0.92974500  1
  C  C1978  1  0.29139200  0.71029300  0.97052000  1
  C  C1979  1  0.30829300  0.67145700  0.96722100  1
  H  H1980  1  0.35787100  0.62450100  0.97547500  1
  H  H1981  1  0.42222800  0.63696000  0.96790100  1
  C  C1982  1  0.34594200  0.65432400  0.97592000  1
  N  N1983  1  0.40516400  0.65640600  0.98979800  1
  C  C1984  1  0.35424300  0.71279300  0.98432500  1
  C  C1985  1  0.36882400  0.67414100  0.98450700  1
  H  H1986  1  0.59175200  0.64934200  0.77619600  1
  H  H1987  1  0.56217100  0.61105600  0.79141500  1
  C  C1988  1  0.58708600  0.63086800  0.75757200  1
  C  C1989  1  0.56903200  0.60936400  0.76654000  1
  H  H1990  1  0.59987400  0.65380800  0.97454700  1
  H  H1991  1  0.61125000  0.64633500  0.92886500  1
  N  N1992  1  0.62258400  0.64968000  0.95885700  1
  C  C1993  1  0.62471700  0.71029800  0.97052400  1
  C  C1994  1  0.64162200  0.67146100  0.96722100  1
  H  H1995  1  0.80620900  0.54912500  0.93909700  1
  C  C1996  1  0.78106800  0.54471200  0.92943700  1
  O  O1997  1  0.75194800  0.57294200  0.92974400  1
  H  H1998  1  0.69120400  0.62450200  0.97547400  1
  H  H1999  1  0.75556200  0.63696000  0.96790100  1
  C  C2000  1  0.67927300  0.65432600  0.97592000  1
  N  N2001  1  0.73849700  0.65640600  0.98979800  1
  C  C2002  1  0.68757500  0.71279300  0.98432500  1
  C  C2003  1  0.70215600  0.67414100  0.98450700  1
  H  H2004  1  0.92508500  0.64934100  0.77619700  1
  H  H2005  1  0.89550300  0.61105600  0.79141600  1
  C  C2006  1  0.92042000  0.63086600  0.75757400  1
  C  C2007  1  0.90236500  0.60936400  0.76654000  1
  H  H2008  1  0.93320300  0.65381400  0.97454900  1
  H  H2009  1  0.94458300  0.64633500  0.92886400  1
  N  N2010  1  0.95590800  0.64968900  0.95885700  1
  C  C2011  1  0.95802700  0.71033300  0.97054800  1
  C  C2012  1  0.97493900  0.67147500  0.96722000  1
  C  C2013  1  0.04659100  0.73068500  0.99114000  1
  O  O2014  1  0.04231710  0.75858800  0.97674800  1
  O  O2015  1  0.16290100  0.72640200  0.78074400  1
  H  H2016  1  0.17529500  0.75144900  0.96808500  1
  H  H2017  1  0.12732900  0.73903300  0.88876100  1
  C  C2018  1  0.24635200  0.73069700  0.91019000  1
  C  C2019  1  0.22123300  0.74199600  0.87013000  1
  C  C2020  1  0.19582700  0.75042000  0.90985400  1
  C  C2021  1  0.19886500  0.74604300  0.96150900  1
  C  C2022  1  0.25033800  0.72721400  0.96219400  1
  O  O2023  1  0.21563900  0.74876900  0.76705100  1
  O  O2024  1  0.22443400  0.74185900  0.76554700  1
  C  C2025  1  0.22297900  0.74193800  0.81237200  1
  C  C2026  1  0.12571000  0.76595600  0.89546100  1
  C  C2027  1  0.15670700  0.77574700  0.90544600  1
  H  H2028  1  0.17352200  0.81936500  0.93223600  1
  H  H2029  1  0.06675310  0.78770000  0.88120000  1
  H  H2030  1  0.04367820  0.85990900  0.86633400  1
  H  H2031  1  0.02781160  0.86004000  0.90640600  1
  H  H2032  1  0.13954200  0.88245800  0.93909700  1
  C  C2033  1  0.15035500  0.81265200  0.91992900  1
  C  C2034  1  0.11596600  0.84138300  0.91742300  1
  C  C2035  1  0.08553260  0.83203800  0.90285700  1
  C  C2036  1  0.09054030  0.79442800  0.89251100  1
  C  C2037  1  0.11440000  0.87804700  0.92943700  1
  N  N2038  1  0.05258070  0.85882400  0.89768000  1
  H  H2039  1  0.27201300  0.72490300  0.90293200  1
  C  C2040  1  0.31496900  0.73127400  0.97706400  1
  C  C2041  1  0.37992400  0.73068600  0.99114000  1
  O  O2042  1  0.37565000  0.75858900  0.97674700  1
  O  O2043  1  0.28884400  0.73651400  0.76463100  1
  H  H2044  1  0.27353900  0.78458300  0.96548000  1
  C  C2045  1  0.29763000  0.77236500  0.98020300  1
  H  H2046  1  0.40008600  0.78770000  0.88120000  1
  H  H2047  1  0.37701200  0.85990900  0.86633400  1
  H  H2048  1  0.36114500  0.86004000  0.90640600  1
  N  N2049  1  0.38591500  0.85882400  0.89768000  1
  O  O2050  1  0.49624700  0.72641000  0.78074600  1
  H  H2051  1  0.60534000  0.72493200  0.90294000  1
  H  H2052  1  0.50861600  0.75144800  0.96808400  1
  H  H2053  1  0.46066100  0.73903300  0.88876100  1
  C  C2054  1  0.57967100  0.73070600  0.91019100  1
  C  C2055  1  0.55455200  0.74202900  0.87014700  1
  C  C2056  1  0.52913900  0.75040500  0.90985900  1
  C  C2057  1  0.53219800  0.74601700  0.96151500  1
  C  C2058  1  0.58366800  0.72721100  0.96219600  1
  O  O2059  1  0.54893700  0.74882500  0.76705700  1
  O  O2060  1  0.55786200  0.74185900  0.76558300  1
  C  C2061  1  0.55624800  0.74204300  0.81239300  1
  C  C2062  1  0.45904000  0.76595700  0.89546000  1
  C  C2063  1  0.49003600  0.77574200  0.90544500  1
  C  C2064  1  0.42387300  0.79442900  0.89251100  1
  H  H2065  1  0.50685800  0.81936000  0.93223500  1
  H  H2066  1  0.47287500  0.88245800  0.93909700  1
  C  C2067  1  0.48369100  0.81264700  0.91992800  1
  C  C2068  1  0.44930100  0.84138100  0.91742300  1
  C  C2069  1  0.41886700  0.83203800  0.90285700  1
  C  C2070  1  0.44773400  0.87804600  0.92943700  1
  H  H2071  1  0.60687200  0.78458400  0.96548000  1
  C  C2072  1  0.64829900  0.73127700  0.97706500  1
  H  H2073  1  0.79399600  0.73903200  0.88876000  1
  C  C2074  1  0.71325700  0.73068600  0.99114000  1
  O  O2075  1  0.70898400  0.75858900  0.97674800  1
  O  O2076  1  0.62219900  0.73652300  0.76462900  1
  C  C2077  1  0.63096300  0.77236500  0.98020300  1
  H  H2078  1  0.73342100  0.78769900  0.88120100  1
  H  H2079  1  0.71034500  0.85990900  0.86633400  1
  H  H2080  1  0.69447900  0.86004000  0.90640600  1
  C  C2081  1  0.75220000  0.83203800  0.90285700  1
  C  C2082  1  0.75720700  0.79442800  0.89251000  1
  N  N2083  1  0.71924800  0.85882400  0.89768000  1
  O  O2084  1  0.82957300  0.72640100  0.78074400  1
  H  H2085  1  0.93868300  0.72489100  0.90293200  1
  H  H2086  1  0.84191100  0.75146200  0.96805700  1
  C  C2087  1  0.98163400  0.73127900  0.97707200  1
  C  C2088  1  0.91299000  0.73072700  0.91018600  1
  C  C2089  1  0.88781600  0.74211600  0.87014800  1
  C  C2090  1  0.86244600  0.75046700  0.90983000  1
  C  C2091  1  0.86542700  0.74631400  0.96149200  1
  C  C2092  1  0.91694200  0.72740400  0.96223300  1
  C  C2093  1  0.79237400  0.76595500  0.89545400  1
  O  O2094  1  0.95552200  0.73651400  0.76462700  1
  O  O2095  1  0.88228800  0.74882800  0.76703900  1
  O  O2096  1  0.89112800  0.74192900  0.76559300  1
  H  H2097  1  0.94020800  0.78458400  0.96548000  1
  C  C2098  1  0.88962700  0.74202700  0.81239300  1
  C  C2099  1  0.82336200  0.77575000  0.90542100  1
  C  C2100  1  0.96430000  0.77236600  0.98020300  1
  H  H2101  1  0.84019000  0.81936300  0.93223400  1
  H  H2102  1  0.80620900  0.88245800  0.93909700  1
  C  C2103  1  0.81702000  0.81265200  0.91992100  1
  C  C2104  1  0.78263300  0.84138200  0.91742300  1
  C  C2105  1  0.78106700  0.87804600  0.92943700  1
  H  H2106  1  0.02453870  0.95783400  0.97547500  1
  O  O2107  1  0.08528070  0.90627700  0.92974500  1
  H  H2108  1  0.08889550  0.97029300  0.96790100  1
  C  C2109  1  0.01260840  0.98765800  0.97592000  1
  N  N2110  1  0.07183180  0.98973900  0.98979800  1
  H  H2111  1  0.35787300  0.95783200  0.97547600  1
  H  H2112  1  0.22883600  0.94438900  0.79141500  1
  C  C2113  1  0.23569800  0.94269700  0.76654000  1
  H  H2114  1  0.25841800  0.98267400  0.77619700  1
  C  C2115  1  0.25375400  0.96420000  0.75757300  1
  H  H2116  1  0.26654300  0.98714200  0.97454700  1
  H  H2117  1  0.27791600  0.97966900  0.92886600  1
  N  N2118  1  0.28925300  0.98301300  0.95885700  1
  C  C2119  1  0.34594500  0.98765600  0.97592100  1
  O  O2120  1  0.41861400  0.90627600  0.92974500  1
  H  H2121  1  0.42222900  0.97029200  0.96790100  1
  N  N2122  1  0.40516700  0.98973800  0.98979800  1
  H  H2123  1  0.69120400  0.95783500  0.97547400  1
  H  H2124  1  0.56217000  0.94438900  0.79141600  1
  C  C2125  1  0.56903200  0.94269700  0.76654000  1
  H  H2126  1  0.59175200  0.98267400  0.77619700  1
  C  C2127  1  0.58708700  0.96420000  0.75757300  1
  H  H2128  1  0.59987400  0.98714100  0.97454700  1
  H  H2129  1  0.61125000  0.97966800  0.92886500  1
  N  N2130  1  0.62258500  0.98301200  0.95885700  1
  C  C2131  1  0.67927500  0.98765800  0.97592000  1
  O  O2132  1  0.75194800  0.90627600  0.92974500  1
  H  H2133  1  0.89550300  0.94438900  0.79141600  1
  H  H2134  1  0.75556200  0.97029300  0.96790100  1
  N  N2135  1  0.73849700  0.98974000  0.98979800  1
  C  C2136  1  0.90236500  0.94269700  0.76654000  1
  H  H2137  1  0.92508500  0.98267400  0.77619800  1
  C  C2138  1  0.92042000  0.96419900  0.75757400  1
  H  H2139  1  0.93320900  0.98714100  0.97454700  1
  H  H2140  1  0.94458300  0.97966800  0.92886600  1
  N  N2141  1  0.95591900  0.98301000  0.95885700  1
