data_sample_9_relaxed_charged

_audit_creation_method RASPA-1.0
_audit_creation_date 2026-2-5
_audit_author_name ''

_cell_length_a    48.2727
_cell_length_b    51.8939
_cell_length_c    59.537
_cell_angle_alpha 88.9495
_cell_angle_beta  87.8548
_cell_angle_gamma 96.2587
_cell_volume      148113

_symmetry_cell_setting          triclinic
_symmetry_space_group_name_Hall 'P 1'
_symmetry_space_group_name_H-M  'P 1'
_symmetry_Int_Tables_number     1

_symmetry_equiv_pos_as_xyz 'x,y,z'

loop_
_atom_site_label
_atom_site_type_symbol
_atom_site_fract_x
_atom_site_fract_y
_atom_site_fract_z
_atom_site_charge
Zn0      Zn     0.195382700000     0.263302775000     0.224279790000     1.22235    
Zn1      Zn     0.247669710000     0.304626880000     0.218963200000     1.26384    
Zn2      Zn     0.233617485000     0.265532225000     0.180006700000     1.16003    
Zn3      Zn     0.195681765000     0.309723525000     0.189303530000     1.23819    
Zn4      Zn     0.443778485000     0.010443940000     0.187486110000     1.23173    
Zn5      Zn     0.499758870000     0.048302350000     0.182144715000     1.52172    
Zn6      Zn     0.448924700000     0.064260540000     0.211187550000     1.3404     
Zn7      Zn     0.482848970000     0.019335720000     0.228560865000     2.84395    
H8       H      0.345360000000     0.115608985000     0.193132700000     0.112872   
H9       H      0.340148925000     0.209314650000     0.229339110000     0.110898   
H10      H      0.420496150000     0.055843090000     0.334569050000     0.149401   
H11      H      0.017023025000     0.016239475000     0.070363400000     0.085354   
H12      H      0.437317430000     0.045960305000     0.074393750000     0.136878   
H13      H      0.000494955000     0.026675285000     0.330487700000     0.113526   
H14      H      0.414584370000     0.487484650000     0.438543900000     0.041506   
H15      H      0.023146985000     0.084826395000     0.466364325000     0.013168   
H16      H      0.412223150000     0.490183350000     0.399182825000     0.059561   
H17      H      0.025503995000     0.082132170000     0.005726100000     0.396584   
H18      H      0.422393250000     0.483252950000     0.011725900000     0.072738   
H19      H      0.015284835000     0.089105165000     0.393186570000     0.062258   
H20      H      0.418406785000     0.484714000000     0.472473950000     0.050659   
H21      H      0.019287765000     0.087630590000     0.432440520000     0.054184   
H22      H      0.047294505000     0.498478830000     0.184906200000     0.164638   
H23      H      0.142651825000     0.325097470000     0.223593340000     0.186333   
H24      H      0.129139470000     0.426475450000     0.223043815000     0.182708   
H25      H      0.080252865000     0.372333600000     0.180143300000     0.172861   
H26      H      0.090736130000     0.361016480000     0.222692100000     0.197091   
H27      H      0.098733560000     0.462153250000     0.185965270000     0.215805   
H28      H      0.232238725000     0.353334600000     0.464398000000     0.057954   
H29      H      0.205456630000     0.221765250000     0.475090830000     0.052727   
H30      H      0.196329280000     0.220442520000     0.441522250000     0.058294   
H31      H      0.242636040000     0.349221170000     0.430823200000     0.058955   
H32      H      0.231276780000     0.355772165000     0.004066825000     0.060899   
H33      H      0.204910385000     0.225742340000     0.014633415000     0.064339   
H34      H      0.197302950000     0.217999085000     0.401853700000     0.058013   
H35      H      0.243170575000     0.345250070000     0.391280300000     0.058929   
H36      H      0.260890150000     0.308260650000     0.071973560000     0.160506   
H37      H      0.172847165000     0.283637750000     0.074937580000     0.161568   
H38      H      0.187484000000     0.299879750000     0.331005350000     0.163547   
H39      H      0.255433975000     0.252982000000     0.333918125000     0.164068   
C40      C      0.016586745000     0.093879745000     0.190976450000     2.19477    
C41      C      0.040603565000     0.114305810000     0.194456175000    -0.774955   
C42      C      0.060585515000     0.131344765000     0.197349640000     0.425471   
C43      C      0.084326020000     0.151832950000     0.200817800000    -0.135407   
C44      C      0.104211735000     0.169136075000     0.203735070000     0.087322   
C45      C      0.127909140000     0.189702720000     0.207200960000     0.036822   
C46      C      0.147765590000     0.206888200000     0.210132360000    -0.042072   
C47      C      0.171372340000     0.227716910000     0.213694570000     0.286133   
C48      C      0.253376200000     0.227726430000     0.208736180000     0.354943   
C49      C      0.434515475000     0.092763240000     0.195975100000     0.482182   
C50      C      0.273884650000     0.209824575000     0.212372200000    -0.120326   
C51      C      0.414967750000     0.111970625000     0.194663600000    -0.163886   
C52      C      0.300376175000     0.219360250000     0.219793885000     0.151721   
C53      C      0.386482330000     0.103784420000     0.192084210000     0.179114   
C54      C      0.319424350000     0.202036860000     0.224333660000    -0.044615   
C55      C      0.367388900000     0.121686460000     0.194815265000    -0.060925   
C56      C      0.312709900000     0.175554250000     0.221295200000     0.023315   
C57      C      0.376273125000     0.147435175000     0.199577930000     0.032294   
C58      C      0.285996170000     0.165609240000     0.214829610000     0.06533    
C59      C      0.404752165000     0.156272920000     0.200610830000     0.059507   
C60      C      0.266325200000     0.182888940000     0.210377470000     0.115201   
C61      C      0.424289735000     0.138310970000     0.198174800000     0.130537   
C62      C      0.335633800000     0.159672825000     0.219777120000     0.21846    
C63      C      0.355068625000     0.164788440000     0.203174300000     0.214769   
C64      C      0.464728000000     0.038948765000     0.405273200000     0.05362    
C65      C      0.472974400000     0.033389220000     0.499635250000    -0.020517   
C66      C      0.445214150000     0.021722905000     0.394464950000    -0.082429   
C67      C      0.492496300000     0.050608365000     0.010442255000     0.005809   
C68      C      0.427537235000     0.003498600000     0.407125800000     0.048605   
C69      C      0.010184465000     0.068822125000     0.497784100000    -0.510516   
C70      C      0.482295200000     0.057458765000     0.392314285000    -0.05909    
C71      C      0.455392630000     0.014889665000     0.012596490000    -0.006858   
C72      C      0.458787470000     0.041199125000     0.288237150000    -0.221871   
C73      C      0.478834150000     0.031122150000     0.116674780000    -0.154219   
C74      C      0.451008975000     0.017259205000     0.465387100000     0.002462   
C75      C      0.486699100000     0.055073455000     0.439525100000     0.004479   
C76      C      0.488887250000     0.053569740000     0.463180900000    -0.00802    
C77      C      0.448826135000     0.018757810000     0.441725670000     0.015397   
C78      C      0.470962735000     0.034731820000     0.475954100000    -0.007968   
C79      C      0.466745150000     0.037600950000     0.428953450000    -0.022192   
C80      C      0.433899820000     0.498771220000     0.478984265000    -0.010648   
C81      C      0.003798365000     0.073571240000     0.425925000000    -0.018256   
C82      C      0.436094880000     0.497671900000     0.002092240000    -0.019558   
C83      C      0.001592575000     0.074678750000     0.402818700000    -0.010528   
C84      C      0.457867350000     0.041191945000     0.263663850000     0.379998   
C85      C      0.479734250000     0.031106245000     0.141253590000     0.273018   
C86      C      0.429195750000     0.002041585000     0.430268250000    -0.013796   
C87      C      0.008526265000     0.070276930000     0.474641470000     0.190823   
C88      C      0.443982250000     0.023013740000     0.371057300000     0.200989   
C89      C      0.493722020000     0.049321150000     0.033855440000     0.035143   
C90      C      0.480235500000     0.058210915000     0.368958550000     0.197565   
C91      C      0.457437425000     0.014150200000     0.035954715000     0.077911   
C92      C      0.482715900000     0.033069215000     0.322267620000    -0.050789   
C93      C      0.455023800000     0.039443055000     0.082623960000    -0.207304   
C94      C      0.481948465000     0.033007450000     0.298990900000     0.176753   
C95      C      0.455767630000     0.039487825000     0.105902255000     0.390911   
C96      C      0.436570315000     0.049491395000     0.301300300000     0.43766    
C97      C      0.000980855000     0.022684890000     0.103624820000     0.277471   
C98      C      0.437605450000     0.049515115000     0.324576900000    -0.232285   
C99      C      0.499970550000     0.022685605000     0.080346880000     0.079798   
C100     C      0.460609080000     0.041295710000     0.335023375000     0.188958   
C101     C      0.477060700000     0.031069230000     0.069885790000     0.124366   
C102     C      0.483620750000     0.460374650000     0.215322865000     0.304404   
C103     C      0.204429910000     0.361799180000     0.189938875000     0.455678   
C104     C      0.176341800000     0.371054700000     0.192517490000    -0.227026   
C105     C      0.011787405000     0.451100550000     0.213191900000     0.754792   
C106     C      0.171410150000     0.394656420000     0.182148860000     0.300336   
C107     C      0.016145300000     0.426964430000     0.222906635000    -0.268325   
C108     C      0.145430190000     0.403803050000     0.184389280000     0.223257   
C109     C      0.042202735000     0.417917670000     0.221347230000     0.456655   
C110     C      0.123645575000     0.389837000000     0.197130920000    -0.100129   
C111     C      0.064745420000     0.432501550000     0.209979550000    -0.206333   
C112     C      0.127930300000     0.365899175000     0.207657200000     0.091044   
C113     C      0.061038385000     0.456909120000     0.200043230000     0.236787   
C114     C      0.154419150000     0.356525050000     0.205281550000     0.179045   
C115     C      0.034432920000     0.466196950000     0.201713980000    -0.072922   
C116     C      0.096079485000     0.400275700000     0.198532100000     0.118728   
C117     C      0.092322440000     0.422401650000     0.209698885000     0.193679   
C118     C      0.270059735000     0.341257720000     0.222274170000     0.390611   
C119     C      0.292598550000     0.362941700000     0.216221290000    -0.072563   
C120     C      0.311397970000     0.380984150000     0.211191100000     0.092732   
C121     C      0.333999700000     0.402420750000     0.205208035000     0.010909   
C122     C      0.353084900000     0.420377880000     0.200197740000     0.034858   
C123     C      0.375769735000     0.441777750000     0.194232480000     0.045956   
C124     C      0.394731800000     0.459702700000     0.189203040000     0.002187   
C125     C      0.417713435000     0.481008680000     0.183185680000     0.161537   
C126     C      0.241483165000     0.303696500000     0.081667900000    -0.294432   
C127     C      0.191912560000     0.289663500000     0.083350060000    -0.295428   
C128     C      0.202545615000     0.288982630000     0.322581450000    -0.294214   
C129     C      0.240713910000     0.262417525000     0.324235100000    -0.293542   
C130     C      0.241153225000     0.305639050000     0.104962585000     0.48988    
C131     C      0.191352000000     0.291499465000     0.106655955000     0.492614   
C132     C      0.202917650000     0.287173700000     0.299275700000     0.49517    
C133     C      0.241234735000     0.260456150000     0.300939680000     0.495927   
C134     C      0.216025500000     0.299535150000     0.117737235000    -0.349364   
C135     C      0.222300530000     0.272847250000     0.288179900000    -0.34263    
C136     C      0.216918675000     0.295736430000     0.070828260000     0.279355   
C137     C      0.221407415000     0.276645950000     0.335088900000     0.281214   
C138     C      0.215556530000     0.301529800000     0.142367660000     0.380521   
C139     C      0.222769530000     0.270852625000     0.263549500000     0.390221   
C140     C      0.224909200000     0.310875050000     0.462884550000     0.008756   
C141     C      0.212964920000     0.263429375000     0.466767000000     0.00147    
C142     C      0.212097080000     0.261696575000     0.443032950000     0.031332   
C143     C      0.226680890000     0.308763830000     0.439149700000     0.029108   
C144     C      0.218713610000     0.288102700000     0.476562380000     0.006182   
C145     C      0.219612465000     0.284279750000     0.429354750000    -0.028241   
C146     C      0.228904890000     0.335090725000     0.473520450000    -0.041314   
C147     C      0.208487185000     0.241237415000     0.481163300000    -0.027827   
C148     C      0.203715665000     0.238100840000     0.432394300000    -0.054382   
C149     C      0.235539125000     0.330331685000     0.424747250000    -0.052852   
C150     C      0.228011175000     0.336761325000     0.496768100000     0.009974   
C151     C      0.208507360000     0.243335400000     0.004366575000    -0.010959   
C152     C      0.203853160000     0.236547470000     0.409150870000     0.019368   
C153     C      0.236285925000     0.328124075000     0.401548350000     0.019105   
C154     C      0.222988350000     0.314407900000     0.010333540000    -0.060042   
C155     C      0.213080250000     0.267575650000     0.014144005000    -0.054824   
C156     C      0.212222650000     0.258420700000     0.395579815000    -0.072152   
C157     C      0.228357910000     0.304364450000     0.391767250000    -0.071711   
C158     C      0.218265325000     0.290026750000     0.000329495000     0.045178   
C159     C      0.220060720000     0.282355650000     0.405587585000     0.068247   
C160     C      0.222338850000     0.315888375000     0.033828080000     0.193861   
C161     C      0.212836340000     0.269894780000     0.037567675000     0.192178   
C162     C      0.212710400000     0.256968080000     0.372089650000     0.199559   
C163     C      0.228766575000     0.302013665000     0.368348865000     0.19952    
N164     N      0.308120130000     0.246454800000     0.223182710000    -0.024262   
N165     N      0.376712085000     0.077537250000     0.186569660000    -0.022003   
N166     N      0.453187375000     0.146331070000     0.201508375000    -0.022715   
N167     N      0.238997040000     0.173123630000     0.203454550000    -0.012048   
N168     N      0.279798650000     0.138464435000     0.210639500000    -0.008878   
N169     N      0.413805050000     0.183014850000     0.204935950000    -0.000851   
N170     N      0.461460450000     0.040984690000     0.358900400000    -0.182204   
N171     N      0.476221550000     0.031371190000     0.046011450000    -0.131866   
N172     N      0.217378900000     0.293796780000     0.046883760000    -0.195513   
N173     N      0.220947160000     0.278585670000     0.359033350000    -0.197379   
O174     O      0.002625195000     0.082013255000     0.207454800000    -3.63849    
O175     O      0.166971900000     0.251529400000     0.215345190000    -0.589189   
O176     O      0.196544990000     0.222508535000     0.215351120000    -0.317276   
O177     O      0.009093870000     0.087187670000     0.171368120000    -1.68198    
O178     O      0.218087910000     0.285796350000     0.203138290000    -0.945876   
O179     O      0.468827850000     0.035586225000     0.202344580000    -0.726539   
O180     O      0.230136260000     0.223795250000     0.220029565000    -0.241079   
O181     O      0.457636685000     0.096564730000     0.184498190000    -0.402247   
O182     O      0.259471775000     0.247911320000     0.195877730000    -0.50411    
O183     O      0.428301200000     0.072448665000     0.208650010000    -0.930962   
O184     O      0.332915600000     0.257011920000     0.216783300000    -0.07075    
O185     O      0.292740500000     0.259212850000     0.236371575000    -0.096786   
O186     O      0.352053000000     0.067284865000     0.193655120000    -0.057982   
O187     O      0.390731065000     0.065048775000     0.172098130000    -0.064123   
O188     O      0.461252800000     0.153362250000     0.221298700000    -0.073873   
O189     O      0.470712500000     0.149786325000     0.184305370000    -0.071687   
O190     O      0.228695035000     0.182807535000     0.185685485000    -0.092596   
O191     O      0.224647460000     0.153988900000     0.214536920000    -0.050765   
O192     O      0.270476280000     0.130880860000     0.191349670000    -0.056855   
O193     O      0.282803150000     0.121264810000     0.226273800000    -0.027436   
O194     O      0.401601600000     0.195111550000     0.220793860000    -0.050238   
O195     O      0.434918150000     0.195168910000     0.193489800000    -0.049305   
O196     O      0.475019870000     0.028429155000     0.252244000000    -0.386794   
O197     O      0.462577550000     0.043865325000     0.152673840000    -0.328563   
O198     O      0.440024150000     0.054116090000     0.253874900000    -0.271935   
O199     O      0.497573300000     0.018178390000     0.151042880000    -0.253515   
O200     O      0.425748400000     0.006267595000     0.360451430000    -0.171222   
O201     O      0.011971355000     0.066050170000     0.044458570000    -0.157439   
O202     O      0.440835985000     0.496403450000     0.048569200000    -0.100608   
O203     O      0.496814350000     0.075982980000     0.356348150000    -0.164094   
O204     O      0.462262650000     0.442526100000     0.219549050000    -0.119282   
O205     O      0.225750550000     0.379650980000     0.185623100000    -0.165819   
O206     O      0.482297000000     0.485595400000     0.213301835000    -0.460589   
O207     O      0.205716225000     0.336581650000     0.191870330000    -0.6514     
O208     O      0.029770540000     0.489609250000     0.191810950000    -0.153231   
O209     O      0.159745170000     0.333629670000     0.215757280000    -0.356499   
O210     O      0.113148000000     0.436597170000     0.221127525000    -0.240849   
O211     O      0.073783420000     0.387545700000     0.187785350000    -0.226505   
O212     O      0.107150965000     0.351367175000     0.220532120000    -0.259126   
O213     O      0.082532885000     0.472015680000     0.188424550000    -0.263277   
O214     O      0.260340200000     0.325204730000     0.207746600000    -0.720137   
O215     O      0.443400850000     0.477296300000     0.184651985000    -0.109257   
O216     O      0.412574470000     0.003443600000     0.176282065000    -0.324306   
O217     O      0.259308575000     0.337936520000     0.242200480000    -0.325911   
O218     O      0.235594170000     0.315256800000     0.151813985000    -0.285937   
O219     O      0.195111550000     0.289535100000     0.154313150000    -0.417705   
O220     O      0.211265730000     0.287427650000     0.251613020000    -0.443134   
O221     O      0.234680700000     0.252545300000     0.254094100000    -0.27579    
O222     O      0.226435735000     0.339199250000     0.043585720000    -0.168959   
O223     O      0.208298830000     0.248458280000     0.050956545000    -0.177757   
O224     O      0.204831870000     0.234190900000     0.362333715000    -0.17222    
O225     O      0.237085750000     0.322916400000     0.354958265000    -0.171189   
F226     F      0.354702300000     0.185458000000     0.188774185000    -0.397013   
F227     F      0.336258620000     0.139218660000     0.234338120000    -0.387382   
F228     F      0.413666425000     0.057210380000     0.291730435000    -0.426227   
F229     F      0.023792625000     0.014788435000     0.113203585000    -0.397725   
F230     F      0.433758020000     0.047388690000     0.117745640000    -0.430243   
F231     F      0.004027365000     0.025258355000     0.287130175000    -0.29682    
F232     F      0.191590665000     0.408793550000     0.169241815000    -0.371696   
F233     F      0.495333950000     0.412192650000     0.234643350000    -0.662241   
F234     F      0.045656110000     0.394895600000     0.231526060000    -0.42733    
F235     F      0.141371150000     0.426444650000     0.173841910000    -0.374871   
F236     F      0.265509515000     0.313023985000     0.114925085000    -0.453126   
F237     F      0.166589080000     0.285852750000     0.118216275000    -0.454966   
F238     F      0.183978615000     0.299056085000     0.287730000000    -0.453238   
F239     F      0.260586680000     0.246826140000     0.290963150000    -0.43852    
Zn0      Zn     0.195382700000     0.263302775000     0.724279790000     1.22235    
Zn1      Zn     0.247669710000     0.304626880000     0.718963200000     1.26384    
Zn2      Zn     0.233617485000     0.265532225000     0.680006700000     1.16003    
Zn3      Zn     0.195681765000     0.309723525000     0.689303530000     1.23819    
Zn4      Zn     0.443778485000     0.010443940000     0.687486110000     1.23173    
Zn5      Zn     0.499758870000     0.048302350000     0.682144715000     1.52172    
Zn6      Zn     0.448924700000     0.064260540000     0.711187550000     1.3404     
Zn7      Zn     0.482848970000     0.019335720000     0.728560865000     2.84395    
H8       H      0.345360000000     0.115608985000     0.693132700000     0.112872   
H9       H      0.340148925000     0.209314650000     0.729339110000     0.110898   
H10      H      0.420496150000     0.055843090000     0.834569050000     0.149401   
H11      H      0.017023025000     0.016239475000     0.570363400000     0.085354   
H12      H      0.437317430000     0.045960305000     0.574393750000     0.136878   
H13      H      0.000494955000     0.026675285000     0.830487700000     0.113526   
H14      H      0.414584370000     0.487484650000     0.938543900000     0.041506   
H15      H      0.023146985000     0.084826395000     0.966364325000     0.013168   
H16      H      0.412223150000     0.490183350000     0.899182825000     0.059561   
H17      H      0.025503995000     0.082132170000     0.505726100000     0.396584   
H18      H      0.422393250000     0.483252950000     0.511725900000     0.072738   
H19      H      0.015284835000     0.089105165000     0.893186570000     0.062258   
H20      H      0.418406785000     0.484714000000     0.972473950000     0.050659   
H21      H      0.019287765000     0.087630590000     0.932440520000     0.054184   
H22      H      0.047294505000     0.498478830000     0.684906200000     0.164638   
H23      H      0.142651825000     0.325097470000     0.723593340000     0.186333   
H24      H      0.129139470000     0.426475450000     0.723043815000     0.182708   
H25      H      0.080252865000     0.372333600000     0.680143300000     0.172861   
H26      H      0.090736130000     0.361016480000     0.722692100000     0.197091   
H27      H      0.098733560000     0.462153250000     0.685965270000     0.215805   
H28      H      0.232238725000     0.353334600000     0.964398000000     0.057954   
H29      H      0.205456630000     0.221765250000     0.975090830000     0.052727   
H30      H      0.196329280000     0.220442520000     0.941522250000     0.058294   
H31      H      0.242636040000     0.349221170000     0.930823200000     0.058955   
H32      H      0.231276780000     0.355772165000     0.504066825000     0.060899   
H33      H      0.204910385000     0.225742340000     0.514633415000     0.064339   
H34      H      0.197302950000     0.217999085000     0.901853700000     0.058013   
H35      H      0.243170575000     0.345250070000     0.891280300000     0.058929   
H36      H      0.260890150000     0.308260650000     0.571973560000     0.160506   
H37      H      0.172847165000     0.283637750000     0.574937580000     0.161568   
H38      H      0.187484000000     0.299879750000     0.831005350000     0.163547   
H39      H      0.255433975000     0.252982000000     0.833918125000     0.164068   
C40      C      0.016586745000     0.093879745000     0.690976450000     2.19477    
C41      C      0.040603565000     0.114305810000     0.694456175000    -0.774955   
C42      C      0.060585515000     0.131344765000     0.697349640000     0.425471   
C43      C      0.084326020000     0.151832950000     0.700817800000    -0.135407   
C44      C      0.104211735000     0.169136075000     0.703735070000     0.087322   
C45      C      0.127909140000     0.189702720000     0.707200960000     0.036822   
C46      C      0.147765590000     0.206888200000     0.710132360000    -0.042072   
C47      C      0.171372340000     0.227716910000     0.713694570000     0.286133   
C48      C      0.253376200000     0.227726430000     0.708736180000     0.354943   
C49      C      0.434515475000     0.092763240000     0.695975100000     0.482182   
C50      C      0.273884650000     0.209824575000     0.712372200000    -0.120326   
C51      C      0.414967750000     0.111970625000     0.694663600000    -0.163886   
C52      C      0.300376175000     0.219360250000     0.719793885000     0.151721   
C53      C      0.386482330000     0.103784420000     0.692084210000     0.179114   
C54      C      0.319424350000     0.202036860000     0.724333660000    -0.044615   
C55      C      0.367388900000     0.121686460000     0.694815265000    -0.060925   
C56      C      0.312709900000     0.175554250000     0.721295200000     0.023315   
C57      C      0.376273125000     0.147435175000     0.699577930000     0.032294   
C58      C      0.285996170000     0.165609240000     0.714829610000     0.06533    
C59      C      0.404752165000     0.156272920000     0.700610830000     0.059507   
C60      C      0.266325200000     0.182888940000     0.710377470000     0.115201   
C61      C      0.424289735000     0.138310970000     0.698174800000     0.130537   
C62      C      0.335633800000     0.159672825000     0.719777120000     0.21846    
C63      C      0.355068625000     0.164788440000     0.703174300000     0.214769   
C64      C      0.464728000000     0.038948765000     0.905273200000     0.05362    
C65      C      0.472974400000     0.033389220000     0.999635250000    -0.020517   
C66      C      0.445214150000     0.021722905000     0.894464950000    -0.082429   
C67      C      0.492496300000     0.050608365000     0.510442255000     0.005809   
C68      C      0.427537235000     0.003498600000     0.907125800000     0.048605   
C69      C      0.010184465000     0.068822125000     0.997784100000    -0.510516   
C70      C      0.482295200000     0.057458765000     0.892314285000    -0.05909    
C71      C      0.455392630000     0.014889665000     0.512596490000    -0.006858   
C72      C      0.458787470000     0.041199125000     0.788237150000    -0.221871   
C73      C      0.478834150000     0.031122150000     0.616674780000    -0.154219   
C74      C      0.451008975000     0.017259205000     0.965387100000     0.002462   
C75      C      0.486699100000     0.055073455000     0.939525100000     0.004479   
C76      C      0.488887250000     0.053569740000     0.963180900000    -0.00802    
C77      C      0.448826135000     0.018757810000     0.941725670000     0.015397   
C78      C      0.470962735000     0.034731820000     0.975954100000    -0.007968   
C79      C      0.466745150000     0.037600950000     0.928953450000    -0.022192   
C80      C      0.433899820000     0.498771220000     0.978984265000    -0.010648   
C81      C      0.003798365000     0.073571240000     0.925925000000    -0.018256   
C82      C      0.436094880000     0.497671900000     0.502092240000    -0.019558   
C83      C      0.001592575000     0.074678750000     0.902818700000    -0.010528   
C84      C      0.457867350000     0.041191945000     0.763663850000     0.379998   
C85      C      0.479734250000     0.031106245000     0.641253590000     0.273018   
C86      C      0.429195750000     0.002041585000     0.930268250000    -0.013796   
C87      C      0.008526265000     0.070276930000     0.974641470000     0.190823   
C88      C      0.443982250000     0.023013740000     0.871057300000     0.200989   
C89      C      0.493722020000     0.049321150000     0.533855440000     0.035143   
C90      C      0.480235500000     0.058210915000     0.868958550000     0.197565   
C91      C      0.457437425000     0.014150200000     0.535954715000     0.077911   
C92      C      0.482715900000     0.033069215000     0.822267620000    -0.050789   
C93      C      0.455023800000     0.039443055000     0.582623960000    -0.207304   
C94      C      0.481948465000     0.033007450000     0.798990900000     0.176753   
C95      C      0.455767630000     0.039487825000     0.605902255000     0.390911   
C96      C      0.436570315000     0.049491395000     0.801300300000     0.43766    
C97      C      0.000980855000     0.022684890000     0.603624820000     0.277471   
C98      C      0.437605450000     0.049515115000     0.824576900000    -0.232285   
C99      C      0.499970550000     0.022685605000     0.580346880000     0.079798   
C100     C      0.460609080000     0.041295710000     0.835023375000     0.188958   
C101     C      0.477060700000     0.031069230000     0.569885790000     0.124366   
C102     C      0.483620750000     0.460374650000     0.715322865000     0.304404   
C103     C      0.204429910000     0.361799180000     0.689938875000     0.455678   
C104     C      0.176341800000     0.371054700000     0.692517490000    -0.227026   
C105     C      0.011787405000     0.451100550000     0.713191900000     0.754792   
C106     C      0.171410150000     0.394656420000     0.682148860000     0.300336   
C107     C      0.016145300000     0.426964430000     0.722906635000    -0.268325   
C108     C      0.145430190000     0.403803050000     0.684389280000     0.223257   
C109     C      0.042202735000     0.417917670000     0.721347230000     0.456655   
C110     C      0.123645575000     0.389837000000     0.697130920000    -0.100129   
C111     C      0.064745420000     0.432501550000     0.709979550000    -0.206333   
C112     C      0.127930300000     0.365899175000     0.707657200000     0.091044   
C113     C      0.061038385000     0.456909120000     0.700043230000     0.236787   
C114     C      0.154419150000     0.356525050000     0.705281550000     0.179045   
C115     C      0.034432920000     0.466196950000     0.701713980000    -0.072922   
C116     C      0.096079485000     0.400275700000     0.698532100000     0.118728   
C117     C      0.092322440000     0.422401650000     0.709698885000     0.193679   
C118     C      0.270059735000     0.341257720000     0.722274170000     0.390611   
C119     C      0.292598550000     0.362941700000     0.716221290000    -0.072563   
C120     C      0.311397970000     0.380984150000     0.711191100000     0.092732   
C121     C      0.333999700000     0.402420750000     0.705208035000     0.010909   
C122     C      0.353084900000     0.420377880000     0.700197740000     0.034858   
C123     C      0.375769735000     0.441777750000     0.694232480000     0.045956   
C124     C      0.394731800000     0.459702700000     0.689203040000     0.002187   
C125     C      0.417713435000     0.481008680000     0.683185680000     0.161537   
C126     C      0.241483165000     0.303696500000     0.581667900000    -0.294432   
C127     C      0.191912560000     0.289663500000     0.583350060000    -0.295428   
C128     C      0.202545615000     0.288982630000     0.822581450000    -0.294214   
C129     C      0.240713910000     0.262417525000     0.824235100000    -0.293542   
C130     C      0.241153225000     0.305639050000     0.604962585000     0.48988    
C131     C      0.191352000000     0.291499465000     0.606655955000     0.492614   
C132     C      0.202917650000     0.287173700000     0.799275700000     0.49517    
C133     C      0.241234735000     0.260456150000     0.800939680000     0.495927   
C134     C      0.216025500000     0.299535150000     0.617737235000    -0.349364   
C135     C      0.222300530000     0.272847250000     0.788179900000    -0.34263    
C136     C      0.216918675000     0.295736430000     0.570828260000     0.279355   
C137     C      0.221407415000     0.276645950000     0.835088900000     0.281214   
C138     C      0.215556530000     0.301529800000     0.642367660000     0.380521   
C139     C      0.222769530000     0.270852625000     0.763549500000     0.390221   
C140     C      0.224909200000     0.310875050000     0.962884550000     0.008756   
C141     C      0.212964920000     0.263429375000     0.966767000000     0.00147    
C142     C      0.212097080000     0.261696575000     0.943032950000     0.031332   
C143     C      0.226680890000     0.308763830000     0.939149700000     0.029108   
C144     C      0.218713610000     0.288102700000     0.976562380000     0.006182   
C145     C      0.219612465000     0.284279750000     0.929354750000    -0.028241   
C146     C      0.228904890000     0.335090725000     0.973520450000    -0.041314   
C147     C      0.208487185000     0.241237415000     0.981163300000    -0.027827   
C148     C      0.203715665000     0.238100840000     0.932394300000    -0.054382   
C149     C      0.235539125000     0.330331685000     0.924747250000    -0.052852   
C150     C      0.228011175000     0.336761325000     0.996768100000     0.009974   
C151     C      0.208507360000     0.243335400000     0.504366575000    -0.010959   
C152     C      0.203853160000     0.236547470000     0.909150870000     0.019368   
C153     C      0.236285925000     0.328124075000     0.901548350000     0.019105   
C154     C      0.222988350000     0.314407900000     0.510333540000    -0.060042   
C155     C      0.213080250000     0.267575650000     0.514144005000    -0.054824   
C156     C      0.212222650000     0.258420700000     0.895579815000    -0.072152   
C157     C      0.228357910000     0.304364450000     0.891767250000    -0.071711   
C158     C      0.218265325000     0.290026750000     0.500329495000     0.045178   
C159     C      0.220060720000     0.282355650000     0.905587585000     0.068247   
C160     C      0.222338850000     0.315888375000     0.533828080000     0.193861   
C161     C      0.212836340000     0.269894780000     0.537567675000     0.192178   
C162     C      0.212710400000     0.256968080000     0.872089650000     0.199559   
C163     C      0.228766575000     0.302013665000     0.868348865000     0.19952    
N164     N      0.308120130000     0.246454800000     0.723182710000    -0.024262   
N165     N      0.376712085000     0.077537250000     0.686569660000    -0.022003   
N166     N      0.453187375000     0.146331070000     0.701508375000    -0.022715   
N167     N      0.238997040000     0.173123630000     0.703454550000    -0.012048   
N168     N      0.279798650000     0.138464435000     0.710639500000    -0.008878   
N169     N      0.413805050000     0.183014850000     0.704935950000    -0.000851   
N170     N      0.461460450000     0.040984690000     0.858900400000    -0.182204   
N171     N      0.476221550000     0.031371190000     0.546011450000    -0.131866   
N172     N      0.217378900000     0.293796780000     0.546883760000    -0.195513   
N173     N      0.220947160000     0.278585670000     0.859033350000    -0.197379   
O174     O      0.002625195000     0.082013255000     0.707454800000    -3.63849    
O175     O      0.166971900000     0.251529400000     0.715345190000    -0.589189   
O176     O      0.196544990000     0.222508535000     0.715351120000    -0.317276   
O177     O      0.009093870000     0.087187670000     0.671368120000    -1.68198    
O178     O      0.218087910000     0.285796350000     0.703138290000    -0.945876   
O179     O      0.468827850000     0.035586225000     0.702344580000    -0.726539   
O180     O      0.230136260000     0.223795250000     0.720029565000    -0.241079   
O181     O      0.457636685000     0.096564730000     0.684498190000    -0.402247   
O182     O      0.259471775000     0.247911320000     0.695877730000    -0.50411    
O183     O      0.428301200000     0.072448665000     0.708650010000    -0.930962   
O184     O      0.332915600000     0.257011920000     0.716783300000    -0.07075    
O185     O      0.292740500000     0.259212850000     0.736371575000    -0.096786   
O186     O      0.352053000000     0.067284865000     0.693655120000    -0.057982   
O187     O      0.390731065000     0.065048775000     0.672098130000    -0.064123   
O188     O      0.461252800000     0.153362250000     0.721298700000    -0.073873   
O189     O      0.470712500000     0.149786325000     0.684305370000    -0.071687   
O190     O      0.228695035000     0.182807535000     0.685685485000    -0.092596   
O191     O      0.224647460000     0.153988900000     0.714536920000    -0.050765   
O192     O      0.270476280000     0.130880860000     0.691349670000    -0.056855   
O193     O      0.282803150000     0.121264810000     0.726273800000    -0.027436   
O194     O      0.401601600000     0.195111550000     0.720793860000    -0.050238   
O195     O      0.434918150000     0.195168910000     0.693489800000    -0.049305   
O196     O      0.475019870000     0.028429155000     0.752244000000    -0.386794   
O197     O      0.462577550000     0.043865325000     0.652673840000    -0.328563   
O198     O      0.440024150000     0.054116090000     0.753874900000    -0.271935   
O199     O      0.497573300000     0.018178390000     0.651042880000    -0.253515   
O200     O      0.425748400000     0.006267595000     0.860451430000    -0.171222   
O201     O      0.011971355000     0.066050170000     0.544458570000    -0.157439   
O202     O      0.440835985000     0.496403450000     0.548569200000    -0.100608   
O203     O      0.496814350000     0.075982980000     0.856348150000    -0.164094   
O204     O      0.462262650000     0.442526100000     0.719549050000    -0.119282   
O205     O      0.225750550000     0.379650980000     0.685623100000    -0.165819   
O206     O      0.482297000000     0.485595400000     0.713301835000    -0.460589   
O207     O      0.205716225000     0.336581650000     0.691870330000    -0.6514     
O208     O      0.029770540000     0.489609250000     0.691810950000    -0.153231   
O209     O      0.159745170000     0.333629670000     0.715757280000    -0.356499   
O210     O      0.113148000000     0.436597170000     0.721127525000    -0.240849   
O211     O      0.073783420000     0.387545700000     0.687785350000    -0.226505   
O212     O      0.107150965000     0.351367175000     0.720532120000    -0.259126   
O213     O      0.082532885000     0.472015680000     0.688424550000    -0.263277   
O214     O      0.260340200000     0.325204730000     0.707746600000    -0.720137   
O215     O      0.443400850000     0.477296300000     0.684651985000    -0.109257   
O216     O      0.412574470000     0.003443600000     0.676282065000    -0.324306   
O217     O      0.259308575000     0.337936520000     0.742200480000    -0.325911   
O218     O      0.235594170000     0.315256800000     0.651813985000    -0.285937   
O219     O      0.195111550000     0.289535100000     0.654313150000    -0.417705   
O220     O      0.211265730000     0.287427650000     0.751613020000    -0.443134   
O221     O      0.234680700000     0.252545300000     0.754094100000    -0.27579    
O222     O      0.226435735000     0.339199250000     0.543585720000    -0.168959   
O223     O      0.208298830000     0.248458280000     0.550956545000    -0.177757   
O224     O      0.204831870000     0.234190900000     0.862333715000    -0.17222    
O225     O      0.237085750000     0.322916400000     0.854958265000    -0.171189   
F226     F      0.354702300000     0.185458000000     0.688774185000    -0.397013   
F227     F      0.336258620000     0.139218660000     0.734338120000    -0.387382   
F228     F      0.413666425000     0.057210380000     0.791730435000    -0.426227   
F229     F      0.023792625000     0.014788435000     0.613203585000    -0.397725   
F230     F      0.433758020000     0.047388690000     0.617745640000    -0.430243   
F231     F      0.004027365000     0.025258355000     0.787130175000    -0.29682    
F232     F      0.191590665000     0.408793550000     0.669241815000    -0.371696   
F233     F      0.495333950000     0.412192650000     0.734643350000    -0.662241   
F234     F      0.045656110000     0.394895600000     0.731526060000    -0.42733    
F235     F      0.141371150000     0.426444650000     0.673841910000    -0.374871   
F236     F      0.265509515000     0.313023985000     0.614925085000    -0.453126   
F237     F      0.166589080000     0.285852750000     0.618216275000    -0.454966   
F238     F      0.183978615000     0.299056085000     0.787730000000    -0.453238   
F239     F      0.260586680000     0.246826140000     0.790963150000    -0.43852    
Zn0      Zn     0.195382700000     0.763302775000     0.224279790000     1.22235    
Zn1      Zn     0.247669710000     0.804626880000     0.218963200000     1.26384    
Zn2      Zn     0.233617485000     0.765532225000     0.180006700000     1.16003    
Zn3      Zn     0.195681765000     0.809723525000     0.189303530000     1.23819    
Zn4      Zn     0.443778485000     0.510443940000     0.187486110000     1.23173    
Zn5      Zn     0.499758870000     0.548302350000     0.182144715000     1.52172    
Zn6      Zn     0.448924700000     0.564260540000     0.211187550000     1.3404     
Zn7      Zn     0.482848970000     0.519335720000     0.228560865000     2.84395    
H8       H      0.345360000000     0.615608985000     0.193132700000     0.112872   
H9       H      0.340148925000     0.709314650000     0.229339110000     0.110898   
H10      H      0.420496150000     0.555843090000     0.334569050000     0.149401   
H11      H      0.017023025000     0.516239475000     0.070363400000     0.085354   
H12      H      0.437317430000     0.545960305000     0.074393750000     0.136878   
H13      H      0.000494955000     0.526675285000     0.330487700000     0.113526   
H14      H      0.414584370000     0.987484650000     0.438543900000     0.041506   
H15      H      0.023146985000     0.584826395000     0.466364325000     0.013168   
H16      H      0.412223150000     0.990183350000     0.399182825000     0.059561   
H17      H      0.025503995000     0.582132170000     0.005726100000     0.396584   
H18      H      0.422393250000     0.983252950000     0.011725900000     0.072738   
H19      H      0.015284835000     0.589105165000     0.393186570000     0.062258   
H20      H      0.418406785000     0.984714000000     0.472473950000     0.050659   
H21      H      0.019287765000     0.587630590000     0.432440520000     0.054184   
H22      H      0.047294505000     0.998478830000     0.184906200000     0.164638   
H23      H      0.142651825000     0.825097470000     0.223593340000     0.186333   
H24      H      0.129139470000     0.926475450000     0.223043815000     0.182708   
H25      H      0.080252865000     0.872333600000     0.180143300000     0.172861   
H26      H      0.090736130000     0.861016480000     0.222692100000     0.197091   
H27      H      0.098733560000     0.962153250000     0.185965270000     0.215805   
H28      H      0.232238725000     0.853334600000     0.464398000000     0.057954   
H29      H      0.205456630000     0.721765250000     0.475090830000     0.052727   
H30      H      0.196329280000     0.720442520000     0.441522250000     0.058294   
H31      H      0.242636040000     0.849221170000     0.430823200000     0.058955   
H32      H      0.231276780000     0.855772165000     0.004066825000     0.060899   
H33      H      0.204910385000     0.725742340000     0.014633415000     0.064339   
H34      H      0.197302950000     0.717999085000     0.401853700000     0.058013   
H35      H      0.243170575000     0.845250070000     0.391280300000     0.058929   
H36      H      0.260890150000     0.808260650000     0.071973560000     0.160506   
H37      H      0.172847165000     0.783637750000     0.074937580000     0.161568   
H38      H      0.187484000000     0.799879750000     0.331005350000     0.163547   
H39      H      0.255433975000     0.752982000000     0.333918125000     0.164068   
C40      C      0.016586745000     0.593879745000     0.190976450000     2.19477    
C41      C      0.040603565000     0.614305810000     0.194456175000    -0.774955   
C42      C      0.060585515000     0.631344765000     0.197349640000     0.425471   
C43      C      0.084326020000     0.651832950000     0.200817800000    -0.135407   
C44      C      0.104211735000     0.669136075000     0.203735070000     0.087322   
C45      C      0.127909140000     0.689702720000     0.207200960000     0.036822   
C46      C      0.147765590000     0.706888200000     0.210132360000    -0.042072   
C47      C      0.171372340000     0.727716910000     0.213694570000     0.286133   
C48      C      0.253376200000     0.727726430000     0.208736180000     0.354943   
C49      C      0.434515475000     0.592763240000     0.195975100000     0.482182   
C50      C      0.273884650000     0.709824575000     0.212372200000    -0.120326   
C51      C      0.414967750000     0.611970625000     0.194663600000    -0.163886   
C52      C      0.300376175000     0.719360250000     0.219793885000     0.151721   
C53      C      0.386482330000     0.603784420000     0.192084210000     0.179114   
C54      C      0.319424350000     0.702036860000     0.224333660000    -0.044615   
C55      C      0.367388900000     0.621686460000     0.194815265000    -0.060925   
C56      C      0.312709900000     0.675554250000     0.221295200000     0.023315   
C57      C      0.376273125000     0.647435175000     0.199577930000     0.032294   
C58      C      0.285996170000     0.665609240000     0.214829610000     0.06533    
C59      C      0.404752165000     0.656272920000     0.200610830000     0.059507   
C60      C      0.266325200000     0.682888940000     0.210377470000     0.115201   
C61      C      0.424289735000     0.638310970000     0.198174800000     0.130537   
C62      C      0.335633800000     0.659672825000     0.219777120000     0.21846    
C63      C      0.355068625000     0.664788440000     0.203174300000     0.214769   
C64      C      0.464728000000     0.538948765000     0.405273200000     0.05362    
C65      C      0.472974400000     0.533389220000     0.499635250000    -0.020517   
C66      C      0.445214150000     0.521722905000     0.394464950000    -0.082429   
C67      C      0.492496300000     0.550608365000     0.010442255000     0.005809   
C68      C      0.427537235000     0.503498600000     0.407125800000     0.048605   
C69      C      0.010184465000     0.568822125000     0.497784100000    -0.510516   
C70      C      0.482295200000     0.557458765000     0.392314285000    -0.05909    
C71      C      0.455392630000     0.514889665000     0.012596490000    -0.006858   
C72      C      0.458787470000     0.541199125000     0.288237150000    -0.221871   
C73      C      0.478834150000     0.531122150000     0.116674780000    -0.154219   
C74      C      0.451008975000     0.517259205000     0.465387100000     0.002462   
C75      C      0.486699100000     0.555073455000     0.439525100000     0.004479   
C76      C      0.488887250000     0.553569740000     0.463180900000    -0.00802    
C77      C      0.448826135000     0.518757810000     0.441725670000     0.015397   
C78      C      0.470962735000     0.534731820000     0.475954100000    -0.007968   
C79      C      0.466745150000     0.537600950000     0.428953450000    -0.022192   
C80      C      0.433899820000     0.998771220000     0.478984265000    -0.010648   
C81      C      0.003798365000     0.573571240000     0.425925000000    -0.018256   
C82      C      0.436094880000     0.997671900000     0.002092240000    -0.019558   
C83      C      0.001592575000     0.574678750000     0.402818700000    -0.010528   
C84      C      0.457867350000     0.541191945000     0.263663850000     0.379998   
C85      C      0.479734250000     0.531106245000     0.141253590000     0.273018   
C86      C      0.429195750000     0.502041585000     0.430268250000    -0.013796   
C87      C      0.008526265000     0.570276930000     0.474641470000     0.190823   
C88      C      0.443982250000     0.523013740000     0.371057300000     0.200989   
C89      C      0.493722020000     0.549321150000     0.033855440000     0.035143   
C90      C      0.480235500000     0.558210915000     0.368958550000     0.197565   
C91      C      0.457437425000     0.514150200000     0.035954715000     0.077911   
C92      C      0.482715900000     0.533069215000     0.322267620000    -0.050789   
C93      C      0.455023800000     0.539443055000     0.082623960000    -0.207304   
C94      C      0.481948465000     0.533007450000     0.298990900000     0.176753   
C95      C      0.455767630000     0.539487825000     0.105902255000     0.390911   
C96      C      0.436570315000     0.549491395000     0.301300300000     0.43766    
C97      C      0.000980855000     0.522684890000     0.103624820000     0.277471   
C98      C      0.437605450000     0.549515115000     0.324576900000    -0.232285   
C99      C      0.499970550000     0.522685605000     0.080346880000     0.079798   
C100     C      0.460609080000     0.541295710000     0.335023375000     0.188958   
C101     C      0.477060700000     0.531069230000     0.069885790000     0.124366   
C102     C      0.483620750000     0.960374650000     0.215322865000     0.304404   
C103     C      0.204429910000     0.861799180000     0.189938875000     0.455678   
C104     C      0.176341800000     0.871054700000     0.192517490000    -0.227026   
C105     C      0.011787405000     0.951100550000     0.213191900000     0.754792   
C106     C      0.171410150000     0.894656420000     0.182148860000     0.300336   
C107     C      0.016145300000     0.926964430000     0.222906635000    -0.268325   
C108     C      0.145430190000     0.903803050000     0.184389280000     0.223257   
C109     C      0.042202735000     0.917917670000     0.221347230000     0.456655   
C110     C      0.123645575000     0.889837000000     0.197130920000    -0.100129   
C111     C      0.064745420000     0.932501550000     0.209979550000    -0.206333   
C112     C      0.127930300000     0.865899175000     0.207657200000     0.091044   
C113     C      0.061038385000     0.956909120000     0.200043230000     0.236787   
C114     C      0.154419150000     0.856525050000     0.205281550000     0.179045   
C115     C      0.034432920000     0.966196950000     0.201713980000    -0.072922   
C116     C      0.096079485000     0.900275700000     0.198532100000     0.118728   
C117     C      0.092322440000     0.922401650000     0.209698885000     0.193679   
C118     C      0.270059735000     0.841257720000     0.222274170000     0.390611   
C119     C      0.292598550000     0.862941700000     0.216221290000    -0.072563   
C120     C      0.311397970000     0.880984150000     0.211191100000     0.092732   
C121     C      0.333999700000     0.902420750000     0.205208035000     0.010909   
C122     C      0.353084900000     0.920377880000     0.200197740000     0.034858   
C123     C      0.375769735000     0.941777750000     0.194232480000     0.045956   
C124     C      0.394731800000     0.959702700000     0.189203040000     0.002187   
C125     C      0.417713435000     0.981008680000     0.183185680000     0.161537   
C126     C      0.241483165000     0.803696500000     0.081667900000    -0.294432   
C127     C      0.191912560000     0.789663500000     0.083350060000    -0.295428   
C128     C      0.202545615000     0.788982630000     0.322581450000    -0.294214   
C129     C      0.240713910000     0.762417525000     0.324235100000    -0.293542   
C130     C      0.241153225000     0.805639050000     0.104962585000     0.48988    
C131     C      0.191352000000     0.791499465000     0.106655955000     0.492614   
C132     C      0.202917650000     0.787173700000     0.299275700000     0.49517    
C133     C      0.241234735000     0.760456150000     0.300939680000     0.495927   
C134     C      0.216025500000     0.799535150000     0.117737235000    -0.349364   
C135     C      0.222300530000     0.772847250000     0.288179900000    -0.34263    
C136     C      0.216918675000     0.795736430000     0.070828260000     0.279355   
C137     C      0.221407415000     0.776645950000     0.335088900000     0.281214   
C138     C      0.215556530000     0.801529800000     0.142367660000     0.380521   
C139     C      0.222769530000     0.770852625000     0.263549500000     0.390221   
C140     C      0.224909200000     0.810875050000     0.462884550000     0.008756   
C141     C      0.212964920000     0.763429375000     0.466767000000     0.00147    
C142     C      0.212097080000     0.761696575000     0.443032950000     0.031332   
C143     C      0.226680890000     0.808763830000     0.439149700000     0.029108   
C144     C      0.218713610000     0.788102700000     0.476562380000     0.006182   
C145     C      0.219612465000     0.784279750000     0.429354750000    -0.028241   
C146     C      0.228904890000     0.835090725000     0.473520450000    -0.041314   
C147     C      0.208487185000     0.741237415000     0.481163300000    -0.027827   
C148     C      0.203715665000     0.738100840000     0.432394300000    -0.054382   
C149     C      0.235539125000     0.830331685000     0.424747250000    -0.052852   
C150     C      0.228011175000     0.836761325000     0.496768100000     0.009974   
C151     C      0.208507360000     0.743335400000     0.004366575000    -0.010959   
C152     C      0.203853160000     0.736547470000     0.409150870000     0.019368   
C153     C      0.236285925000     0.828124075000     0.401548350000     0.019105   
C154     C      0.222988350000     0.814407900000     0.010333540000    -0.060042   
C155     C      0.213080250000     0.767575650000     0.014144005000    -0.054824   
C156     C      0.212222650000     0.758420700000     0.395579815000    -0.072152   
C157     C      0.228357910000     0.804364450000     0.391767250000    -0.071711   
C158     C      0.218265325000     0.790026750000     0.000329495000     0.045178   
C159     C      0.220060720000     0.782355650000     0.405587585000     0.068247   
C160     C      0.222338850000     0.815888375000     0.033828080000     0.193861   
C161     C      0.212836340000     0.769894780000     0.037567675000     0.192178   
C162     C      0.212710400000     0.756968080000     0.372089650000     0.199559   
C163     C      0.228766575000     0.802013665000     0.368348865000     0.19952    
N164     N      0.308120130000     0.746454800000     0.223182710000    -0.024262   
N165     N      0.376712085000     0.577537250000     0.186569660000    -0.022003   
N166     N      0.453187375000     0.646331070000     0.201508375000    -0.022715   
N167     N      0.238997040000     0.673123630000     0.203454550000    -0.012048   
N168     N      0.279798650000     0.638464435000     0.210639500000    -0.008878   
N169     N      0.413805050000     0.683014850000     0.204935950000    -0.000851   
N170     N      0.461460450000     0.540984690000     0.358900400000    -0.182204   
N171     N      0.476221550000     0.531371190000     0.046011450000    -0.131866   
N172     N      0.217378900000     0.793796780000     0.046883760000    -0.195513   
N173     N      0.220947160000     0.778585670000     0.359033350000    -0.197379   
O174     O      0.002625195000     0.582013255000     0.207454800000    -3.63849    
O175     O      0.166971900000     0.751529400000     0.215345190000    -0.589189   
O176     O      0.196544990000     0.722508535000     0.215351120000    -0.317276   
O177     O      0.009093870000     0.587187670000     0.171368120000    -1.68198    
O178     O      0.218087910000     0.785796350000     0.203138290000    -0.945876   
O179     O      0.468827850000     0.535586225000     0.202344580000    -0.726539   
O180     O      0.230136260000     0.723795250000     0.220029565000    -0.241079   
O181     O      0.457636685000     0.596564730000     0.184498190000    -0.402247   
O182     O      0.259471775000     0.747911320000     0.195877730000    -0.50411    
O183     O      0.428301200000     0.572448665000     0.208650010000    -0.930962   
O184     O      0.332915600000     0.757011920000     0.216783300000    -0.07075    
O185     O      0.292740500000     0.759212850000     0.236371575000    -0.096786   
O186     O      0.352053000000     0.567284865000     0.193655120000    -0.057982   
O187     O      0.390731065000     0.565048775000     0.172098130000    -0.064123   
O188     O      0.461252800000     0.653362250000     0.221298700000    -0.073873   
O189     O      0.470712500000     0.649786325000     0.184305370000    -0.071687   
O190     O      0.228695035000     0.682807535000     0.185685485000    -0.092596   
O191     O      0.224647460000     0.653988900000     0.214536920000    -0.050765   
O192     O      0.270476280000     0.630880860000     0.191349670000    -0.056855   
O193     O      0.282803150000     0.621264810000     0.226273800000    -0.027436   
O194     O      0.401601600000     0.695111550000     0.220793860000    -0.050238   
O195     O      0.434918150000     0.695168910000     0.193489800000    -0.049305   
O196     O      0.475019870000     0.528429155000     0.252244000000    -0.386794   
O197     O      0.462577550000     0.543865325000     0.152673840000    -0.328563   
O198     O      0.440024150000     0.554116090000     0.253874900000    -0.271935   
O199     O      0.497573300000     0.518178390000     0.151042880000    -0.253515   
O200     O      0.425748400000     0.506267595000     0.360451430000    -0.171222   
O201     O      0.011971355000     0.566050170000     0.044458570000    -0.157439   
O202     O      0.440835985000     0.996403450000     0.048569200000    -0.100608   
O203     O      0.496814350000     0.575982980000     0.356348150000    -0.164094   
O204     O      0.462262650000     0.942526100000     0.219549050000    -0.119282   
O205     O      0.225750550000     0.879650980000     0.185623100000    -0.165819   
O206     O      0.482297000000     0.985595400000     0.213301835000    -0.460589   
O207     O      0.205716225000     0.836581650000     0.191870330000    -0.6514     
O208     O      0.029770540000     0.989609250000     0.191810950000    -0.153231   
O209     O      0.159745170000     0.833629670000     0.215757280000    -0.356499   
O210     O      0.113148000000     0.936597170000     0.221127525000    -0.240849   
O211     O      0.073783420000     0.887545700000     0.187785350000    -0.226505   
O212     O      0.107150965000     0.851367175000     0.220532120000    -0.259126   
O213     O      0.082532885000     0.972015680000     0.188424550000    -0.263277   
O214     O      0.260340200000     0.825204730000     0.207746600000    -0.720137   
O215     O      0.443400850000     0.977296300000     0.184651985000    -0.109257   
O216     O      0.412574470000     0.503443600000     0.176282065000    -0.324306   
O217     O      0.259308575000     0.837936520000     0.242200480000    -0.325911   
O218     O      0.235594170000     0.815256800000     0.151813985000    -0.285937   
O219     O      0.195111550000     0.789535100000     0.154313150000    -0.417705   
O220     O      0.211265730000     0.787427650000     0.251613020000    -0.443134   
O221     O      0.234680700000     0.752545300000     0.254094100000    -0.27579    
O222     O      0.226435735000     0.839199250000     0.043585720000    -0.168959   
O223     O      0.208298830000     0.748458280000     0.050956545000    -0.177757   
O224     O      0.204831870000     0.734190900000     0.362333715000    -0.17222    
O225     O      0.237085750000     0.822916400000     0.354958265000    -0.171189   
F226     F      0.354702300000     0.685458000000     0.188774185000    -0.397013   
F227     F      0.336258620000     0.639218660000     0.234338120000    -0.387382   
F228     F      0.413666425000     0.557210380000     0.291730435000    -0.426227   
F229     F      0.023792625000     0.514788435000     0.113203585000    -0.397725   
F230     F      0.433758020000     0.547388690000     0.117745640000    -0.430243   
F231     F      0.004027365000     0.525258355000     0.287130175000    -0.29682    
F232     F      0.191590665000     0.908793550000     0.169241815000    -0.371696   
F233     F      0.495333950000     0.912192650000     0.234643350000    -0.662241   
F234     F      0.045656110000     0.894895600000     0.231526060000    -0.42733    
F235     F      0.141371150000     0.926444650000     0.173841910000    -0.374871   
F236     F      0.265509515000     0.813023985000     0.114925085000    -0.453126   
F237     F      0.166589080000     0.785852750000     0.118216275000    -0.454966   
F238     F      0.183978615000     0.799056085000     0.287730000000    -0.453238   
F239     F      0.260586680000     0.746826140000     0.290963150000    -0.43852    
Zn0      Zn     0.195382700000     0.763302775000     0.724279790000     1.22235    
Zn1      Zn     0.247669710000     0.804626880000     0.718963200000     1.26384    
Zn2      Zn     0.233617485000     0.765532225000     0.680006700000     1.16003    
Zn3      Zn     0.195681765000     0.809723525000     0.689303530000     1.23819    
Zn4      Zn     0.443778485000     0.510443940000     0.687486110000     1.23173    
Zn5      Zn     0.499758870000     0.548302350000     0.682144715000     1.52172    
Zn6      Zn     0.448924700000     0.564260540000     0.711187550000     1.3404     
Zn7      Zn     0.482848970000     0.519335720000     0.728560865000     2.84395    
H8       H      0.345360000000     0.615608985000     0.693132700000     0.112872   
H9       H      0.340148925000     0.709314650000     0.729339110000     0.110898   
H10      H      0.420496150000     0.555843090000     0.834569050000     0.149401   
H11      H      0.017023025000     0.516239475000     0.570363400000     0.085354   
H12      H      0.437317430000     0.545960305000     0.574393750000     0.136878   
H13      H      0.000494955000     0.526675285000     0.830487700000     0.113526   
H14      H      0.414584370000     0.987484650000     0.938543900000     0.041506   
H15      H      0.023146985000     0.584826395000     0.966364325000     0.013168   
H16      H      0.412223150000     0.990183350000     0.899182825000     0.059561   
H17      H      0.025503995000     0.582132170000     0.505726100000     0.396584   
H18      H      0.422393250000     0.983252950000     0.511725900000     0.072738   
H19      H      0.015284835000     0.589105165000     0.893186570000     0.062258   
H20      H      0.418406785000     0.984714000000     0.972473950000     0.050659   
H21      H      0.019287765000     0.587630590000     0.932440520000     0.054184   
H22      H      0.047294505000     0.998478830000     0.684906200000     0.164638   
H23      H      0.142651825000     0.825097470000     0.723593340000     0.186333   
H24      H      0.129139470000     0.926475450000     0.723043815000     0.182708   
H25      H      0.080252865000     0.872333600000     0.680143300000     0.172861   
H26      H      0.090736130000     0.861016480000     0.722692100000     0.197091   
H27      H      0.098733560000     0.962153250000     0.685965270000     0.215805   
H28      H      0.232238725000     0.853334600000     0.964398000000     0.057954   
H29      H      0.205456630000     0.721765250000     0.975090830000     0.052727   
H30      H      0.196329280000     0.720442520000     0.941522250000     0.058294   
H31      H      0.242636040000     0.849221170000     0.930823200000     0.058955   
H32      H      0.231276780000     0.855772165000     0.504066825000     0.060899   
H33      H      0.204910385000     0.725742340000     0.514633415000     0.064339   
H34      H      0.197302950000     0.717999085000     0.901853700000     0.058013   
H35      H      0.243170575000     0.845250070000     0.891280300000     0.058929   
H36      H      0.260890150000     0.808260650000     0.571973560000     0.160506   
H37      H      0.172847165000     0.783637750000     0.574937580000     0.161568   
H38      H      0.187484000000     0.799879750000     0.831005350000     0.163547   
H39      H      0.255433975000     0.752982000000     0.833918125000     0.164068   
C40      C      0.016586745000     0.593879745000     0.690976450000     2.19477    
C41      C      0.040603565000     0.614305810000     0.694456175000    -0.774955   
C42      C      0.060585515000     0.631344765000     0.697349640000     0.425471   
C43      C      0.084326020000     0.651832950000     0.700817800000    -0.135407   
C44      C      0.104211735000     0.669136075000     0.703735070000     0.087322   
C45      C      0.127909140000     0.689702720000     0.707200960000     0.036822   
C46      C      0.147765590000     0.706888200000     0.710132360000    -0.042072   
C47      C      0.171372340000     0.727716910000     0.713694570000     0.286133   
C48      C      0.253376200000     0.727726430000     0.708736180000     0.354943   
C49      C      0.434515475000     0.592763240000     0.695975100000     0.482182   
C50      C      0.273884650000     0.709824575000     0.712372200000    -0.120326   
C51      C      0.414967750000     0.611970625000     0.694663600000    -0.163886   
C52      C      0.300376175000     0.719360250000     0.719793885000     0.151721   
C53      C      0.386482330000     0.603784420000     0.692084210000     0.179114   
C54      C      0.319424350000     0.702036860000     0.724333660000    -0.044615   
C55      C      0.367388900000     0.621686460000     0.694815265000    -0.060925   
C56      C      0.312709900000     0.675554250000     0.721295200000     0.023315   
C57      C      0.376273125000     0.647435175000     0.699577930000     0.032294   
C58      C      0.285996170000     0.665609240000     0.714829610000     0.06533    
C59      C      0.404752165000     0.656272920000     0.700610830000     0.059507   
C60      C      0.266325200000     0.682888940000     0.710377470000     0.115201   
C61      C      0.424289735000     0.638310970000     0.698174800000     0.130537   
C62      C      0.335633800000     0.659672825000     0.719777120000     0.21846    
C63      C      0.355068625000     0.664788440000     0.703174300000     0.214769   
C64      C      0.464728000000     0.538948765000     0.905273200000     0.05362    
C65      C      0.472974400000     0.533389220000     0.999635250000    -0.020517   
C66      C      0.445214150000     0.521722905000     0.894464950000    -0.082429   
C67      C      0.492496300000     0.550608365000     0.510442255000     0.005809   
C68      C      0.427537235000     0.503498600000     0.907125800000     0.048605   
C69      C      0.010184465000     0.568822125000     0.997784100000    -0.510516   
C70      C      0.482295200000     0.557458765000     0.892314285000    -0.05909    
C71      C      0.455392630000     0.514889665000     0.512596490000    -0.006858   
C72      C      0.458787470000     0.541199125000     0.788237150000    -0.221871   
C73      C      0.478834150000     0.531122150000     0.616674780000    -0.154219   
C74      C      0.451008975000     0.517259205000     0.965387100000     0.002462   
C75      C      0.486699100000     0.555073455000     0.939525100000     0.004479   
C76      C      0.488887250000     0.553569740000     0.963180900000    -0.00802    
C77      C      0.448826135000     0.518757810000     0.941725670000     0.015397   
C78      C      0.470962735000     0.534731820000     0.975954100000    -0.007968   
C79      C      0.466745150000     0.537600950000     0.928953450000    -0.022192   
C80      C      0.433899820000     0.998771220000     0.978984265000    -0.010648   
C81      C      0.003798365000     0.573571240000     0.925925000000    -0.018256   
C82      C      0.436094880000     0.997671900000     0.502092240000    -0.019558   
C83      C      0.001592575000     0.574678750000     0.902818700000    -0.010528   
C84      C      0.457867350000     0.541191945000     0.763663850000     0.379998   
C85      C      0.479734250000     0.531106245000     0.641253590000     0.273018   
C86      C      0.429195750000     0.502041585000     0.930268250000    -0.013796   
C87      C      0.008526265000     0.570276930000     0.974641470000     0.190823   
C88      C      0.443982250000     0.523013740000     0.871057300000     0.200989   
C89      C      0.493722020000     0.549321150000     0.533855440000     0.035143   
C90      C      0.480235500000     0.558210915000     0.868958550000     0.197565   
C91      C      0.457437425000     0.514150200000     0.535954715000     0.077911   
C92      C      0.482715900000     0.533069215000     0.822267620000    -0.050789   
C93      C      0.455023800000     0.539443055000     0.582623960000    -0.207304   
C94      C      0.481948465000     0.533007450000     0.798990900000     0.176753   
C95      C      0.455767630000     0.539487825000     0.605902255000     0.390911   
C96      C      0.436570315000     0.549491395000     0.801300300000     0.43766    
C97      C      0.000980855000     0.522684890000     0.603624820000     0.277471   
C98      C      0.437605450000     0.549515115000     0.824576900000    -0.232285   
C99      C      0.499970550000     0.522685605000     0.580346880000     0.079798   
C100     C      0.460609080000     0.541295710000     0.835023375000     0.188958   
C101     C      0.477060700000     0.531069230000     0.569885790000     0.124366   
C102     C      0.483620750000     0.960374650000     0.715322865000     0.304404   
C103     C      0.204429910000     0.861799180000     0.689938875000     0.455678   
C104     C      0.176341800000     0.871054700000     0.692517490000    -0.227026   
C105     C      0.011787405000     0.951100550000     0.713191900000     0.754792   
C106     C      0.171410150000     0.894656420000     0.682148860000     0.300336   
C107     C      0.016145300000     0.926964430000     0.722906635000    -0.268325   
C108     C      0.145430190000     0.903803050000     0.684389280000     0.223257   
C109     C      0.042202735000     0.917917670000     0.721347230000     0.456655   
C110     C      0.123645575000     0.889837000000     0.697130920000    -0.100129   
C111     C      0.064745420000     0.932501550000     0.709979550000    -0.206333   
C112     C      0.127930300000     0.865899175000     0.707657200000     0.091044   
C113     C      0.061038385000     0.956909120000     0.700043230000     0.236787   
C114     C      0.154419150000     0.856525050000     0.705281550000     0.179045   
C115     C      0.034432920000     0.966196950000     0.701713980000    -0.072922   
C116     C      0.096079485000     0.900275700000     0.698532100000     0.118728   
C117     C      0.092322440000     0.922401650000     0.709698885000     0.193679   
C118     C      0.270059735000     0.841257720000     0.722274170000     0.390611   
C119     C      0.292598550000     0.862941700000     0.716221290000    -0.072563   
C120     C      0.311397970000     0.880984150000     0.711191100000     0.092732   
C121     C      0.333999700000     0.902420750000     0.705208035000     0.010909   
C122     C      0.353084900000     0.920377880000     0.700197740000     0.034858   
C123     C      0.375769735000     0.941777750000     0.694232480000     0.045956   
C124     C      0.394731800000     0.959702700000     0.689203040000     0.002187   
C125     C      0.417713435000     0.981008680000     0.683185680000     0.161537   
C126     C      0.241483165000     0.803696500000     0.581667900000    -0.294432   
C127     C      0.191912560000     0.789663500000     0.583350060000    -0.295428   
C128     C      0.202545615000     0.788982630000     0.822581450000    -0.294214   
C129     C      0.240713910000     0.762417525000     0.824235100000    -0.293542   
C130     C      0.241153225000     0.805639050000     0.604962585000     0.48988    
C131     C      0.191352000000     0.791499465000     0.606655955000     0.492614   
C132     C      0.202917650000     0.787173700000     0.799275700000     0.49517    
C133     C      0.241234735000     0.760456150000     0.800939680000     0.495927   
C134     C      0.216025500000     0.799535150000     0.617737235000    -0.349364   
C135     C      0.222300530000     0.772847250000     0.788179900000    -0.34263    
C136     C      0.216918675000     0.795736430000     0.570828260000     0.279355   
C137     C      0.221407415000     0.776645950000     0.835088900000     0.281214   
C138     C      0.215556530000     0.801529800000     0.642367660000     0.380521   
C139     C      0.222769530000     0.770852625000     0.763549500000     0.390221   
C140     C      0.224909200000     0.810875050000     0.962884550000     0.008756   
C141     C      0.212964920000     0.763429375000     0.966767000000     0.00147    
C142     C      0.212097080000     0.761696575000     0.943032950000     0.031332   
C143     C      0.226680890000     0.808763830000     0.939149700000     0.029108   
C144     C      0.218713610000     0.788102700000     0.976562380000     0.006182   
C145     C      0.219612465000     0.784279750000     0.929354750000    -0.028241   
C146     C      0.228904890000     0.835090725000     0.973520450000    -0.041314   
C147     C      0.208487185000     0.741237415000     0.981163300000    -0.027827   
C148     C      0.203715665000     0.738100840000     0.932394300000    -0.054382   
C149     C      0.235539125000     0.830331685000     0.924747250000    -0.052852   
C150     C      0.228011175000     0.836761325000     0.996768100000     0.009974   
C151     C      0.208507360000     0.743335400000     0.504366575000    -0.010959   
C152     C      0.203853160000     0.736547470000     0.909150870000     0.019368   
C153     C      0.236285925000     0.828124075000     0.901548350000     0.019105   
C154     C      0.222988350000     0.814407900000     0.510333540000    -0.060042   
C155     C      0.213080250000     0.767575650000     0.514144005000    -0.054824   
C156     C      0.212222650000     0.758420700000     0.895579815000    -0.072152   
C157     C      0.228357910000     0.804364450000     0.891767250000    -0.071711   
C158     C      0.218265325000     0.790026750000     0.500329495000     0.045178   
C159     C      0.220060720000     0.782355650000     0.905587585000     0.068247   
C160     C      0.222338850000     0.815888375000     0.533828080000     0.193861   
C161     C      0.212836340000     0.769894780000     0.537567675000     0.192178   
C162     C      0.212710400000     0.756968080000     0.872089650000     0.199559   
C163     C      0.228766575000     0.802013665000     0.868348865000     0.19952    
N164     N      0.308120130000     0.746454800000     0.723182710000    -0.024262   
N165     N      0.376712085000     0.577537250000     0.686569660000    -0.022003   
N166     N      0.453187375000     0.646331070000     0.701508375000    -0.022715   
N167     N      0.238997040000     0.673123630000     0.703454550000    -0.012048   
N168     N      0.279798650000     0.638464435000     0.710639500000    -0.008878   
N169     N      0.413805050000     0.683014850000     0.704935950000    -0.000851   
N170     N      0.461460450000     0.540984690000     0.858900400000    -0.182204   
N171     N      0.476221550000     0.531371190000     0.546011450000    -0.131866   
N172     N      0.217378900000     0.793796780000     0.546883760000    -0.195513   
N173     N      0.220947160000     0.778585670000     0.859033350000    -0.197379   
O174     O      0.002625195000     0.582013255000     0.707454800000    -3.63849    
O175     O      0.166971900000     0.751529400000     0.715345190000    -0.589189   
O176     O      0.196544990000     0.722508535000     0.715351120000    -0.317276   
O177     O      0.009093870000     0.587187670000     0.671368120000    -1.68198    
O178     O      0.218087910000     0.785796350000     0.703138290000    -0.945876   
O179     O      0.468827850000     0.535586225000     0.702344580000    -0.726539   
O180     O      0.230136260000     0.723795250000     0.720029565000    -0.241079   
O181     O      0.457636685000     0.596564730000     0.684498190000    -0.402247   
O182     O      0.259471775000     0.747911320000     0.695877730000    -0.50411    
O183     O      0.428301200000     0.572448665000     0.708650010000    -0.930962   
O184     O      0.332915600000     0.757011920000     0.716783300000    -0.07075    
O185     O      0.292740500000     0.759212850000     0.736371575000    -0.096786   
O186     O      0.352053000000     0.567284865000     0.693655120000    -0.057982   
O187     O      0.390731065000     0.565048775000     0.672098130000    -0.064123   
O188     O      0.461252800000     0.653362250000     0.721298700000    -0.073873   
O189     O      0.470712500000     0.649786325000     0.684305370000    -0.071687   
O190     O      0.228695035000     0.682807535000     0.685685485000    -0.092596   
O191     O      0.224647460000     0.653988900000     0.714536920000    -0.050765   
O192     O      0.270476280000     0.630880860000     0.691349670000    -0.056855   
O193     O      0.282803150000     0.621264810000     0.726273800000    -0.027436   
O194     O      0.401601600000     0.695111550000     0.720793860000    -0.050238   
O195     O      0.434918150000     0.695168910000     0.693489800000    -0.049305   
O196     O      0.475019870000     0.528429155000     0.752244000000    -0.386794   
O197     O      0.462577550000     0.543865325000     0.652673840000    -0.328563   
O198     O      0.440024150000     0.554116090000     0.753874900000    -0.271935   
O199     O      0.497573300000     0.518178390000     0.651042880000    -0.253515   
O200     O      0.425748400000     0.506267595000     0.860451430000    -0.171222   
O201     O      0.011971355000     0.566050170000     0.544458570000    -0.157439   
O202     O      0.440835985000     0.996403450000     0.548569200000    -0.100608   
O203     O      0.496814350000     0.575982980000     0.856348150000    -0.164094   
O204     O      0.462262650000     0.942526100000     0.719549050000    -0.119282   
O205     O      0.225750550000     0.879650980000     0.685623100000    -0.165819   
O206     O      0.482297000000     0.985595400000     0.713301835000    -0.460589   
O207     O      0.205716225000     0.836581650000     0.691870330000    -0.6514     
O208     O      0.029770540000     0.989609250000     0.691810950000    -0.153231   
O209     O      0.159745170000     0.833629670000     0.715757280000    -0.356499   
O210     O      0.113148000000     0.936597170000     0.721127525000    -0.240849   
O211     O      0.073783420000     0.887545700000     0.687785350000    -0.226505   
O212     O      0.107150965000     0.851367175000     0.720532120000    -0.259126   
O213     O      0.082532885000     0.972015680000     0.688424550000    -0.263277   
O214     O      0.260340200000     0.825204730000     0.707746600000    -0.720137   
O215     O      0.443400850000     0.977296300000     0.684651985000    -0.109257   
O216     O      0.412574470000     0.503443600000     0.676282065000    -0.324306   
O217     O      0.259308575000     0.837936520000     0.742200480000    -0.325911   
O218     O      0.235594170000     0.815256800000     0.651813985000    -0.285937   
O219     O      0.195111550000     0.789535100000     0.654313150000    -0.417705   
O220     O      0.211265730000     0.787427650000     0.751613020000    -0.443134   
O221     O      0.234680700000     0.752545300000     0.754094100000    -0.27579    
O222     O      0.226435735000     0.839199250000     0.543585720000    -0.168959   
O223     O      0.208298830000     0.748458280000     0.550956545000    -0.177757   
O224     O      0.204831870000     0.734190900000     0.862333715000    -0.17222    
O225     O      0.237085750000     0.822916400000     0.854958265000    -0.171189   
F226     F      0.354702300000     0.685458000000     0.688774185000    -0.397013   
F227     F      0.336258620000     0.639218660000     0.734338120000    -0.387382   
F228     F      0.413666425000     0.557210380000     0.791730435000    -0.426227   
F229     F      0.023792625000     0.514788435000     0.613203585000    -0.397725   
F230     F      0.433758020000     0.547388690000     0.617745640000    -0.430243   
F231     F      0.004027365000     0.525258355000     0.787130175000    -0.29682    
F232     F      0.191590665000     0.908793550000     0.669241815000    -0.371696   
F233     F      0.495333950000     0.912192650000     0.734643350000    -0.662241   
F234     F      0.045656110000     0.894895600000     0.731526060000    -0.42733    
F235     F      0.141371150000     0.926444650000     0.673841910000    -0.374871   
F236     F      0.265509515000     0.813023985000     0.614925085000    -0.453126   
F237     F      0.166589080000     0.785852750000     0.618216275000    -0.454966   
F238     F      0.183978615000     0.799056085000     0.787730000000    -0.453238   
F239     F      0.260586680000     0.746826140000     0.790963150000    -0.43852    
Zn0      Zn     0.695382700000     0.263302775000     0.224279790000     1.22235    
Zn1      Zn     0.747669710000     0.304626880000     0.218963200000     1.26384    
Zn2      Zn     0.733617485000     0.265532225000     0.180006700000     1.16003    
Zn3      Zn     0.695681765000     0.309723525000     0.189303530000     1.23819    
Zn4      Zn     0.943778485000     0.010443940000     0.187486110000     1.23173    
Zn5      Zn     0.999758870000     0.048302350000     0.182144715000     1.52172    
Zn6      Zn     0.948924700000     0.064260540000     0.211187550000     1.3404     
Zn7      Zn     0.982848970000     0.019335720000     0.228560865000     2.84395    
H8       H      0.845360000000     0.115608985000     0.193132700000     0.112872   
H9       H      0.840148925000     0.209314650000     0.229339110000     0.110898   
H10      H      0.920496150000     0.055843090000     0.334569050000     0.149401   
H11      H      0.517023025000     0.016239475000     0.070363400000     0.085354   
H12      H      0.937317430000     0.045960305000     0.074393750000     0.136878   
H13      H      0.500494955000     0.026675285000     0.330487700000     0.113526   
H14      H      0.914584370000     0.487484650000     0.438543900000     0.041506   
H15      H      0.523146985000     0.084826395000     0.466364325000     0.013168   
H16      H      0.912223150000     0.490183350000     0.399182825000     0.059561   
H17      H      0.525503995000     0.082132170000     0.005726100000     0.396584   
H18      H      0.922393250000     0.483252950000     0.011725900000     0.072738   
H19      H      0.515284835000     0.089105165000     0.393186570000     0.062258   
H20      H      0.918406785000     0.484714000000     0.472473950000     0.050659   
H21      H      0.519287765000     0.087630590000     0.432440520000     0.054184   
H22      H      0.547294505000     0.498478830000     0.184906200000     0.164638   
H23      H      0.642651825000     0.325097470000     0.223593340000     0.186333   
H24      H      0.629139470000     0.426475450000     0.223043815000     0.182708   
H25      H      0.580252865000     0.372333600000     0.180143300000     0.172861   
H26      H      0.590736130000     0.361016480000     0.222692100000     0.197091   
H27      H      0.598733560000     0.462153250000     0.185965270000     0.215805   
H28      H      0.732238725000     0.353334600000     0.464398000000     0.057954   
H29      H      0.705456630000     0.221765250000     0.475090830000     0.052727   
H30      H      0.696329280000     0.220442520000     0.441522250000     0.058294   
H31      H      0.742636040000     0.349221170000     0.430823200000     0.058955   
H32      H      0.731276780000     0.355772165000     0.004066825000     0.060899   
H33      H      0.704910385000     0.225742340000     0.014633415000     0.064339   
H34      H      0.697302950000     0.217999085000     0.401853700000     0.058013   
H35      H      0.743170575000     0.345250070000     0.391280300000     0.058929   
H36      H      0.760890150000     0.308260650000     0.071973560000     0.160506   
H37      H      0.672847165000     0.283637750000     0.074937580000     0.161568   
H38      H      0.687484000000     0.299879750000     0.331005350000     0.163547   
H39      H      0.755433975000     0.252982000000     0.333918125000     0.164068   
C40      C      0.516586745000     0.093879745000     0.190976450000     2.19477    
C41      C      0.540603565000     0.114305810000     0.194456175000    -0.774955   
C42      C      0.560585515000     0.131344765000     0.197349640000     0.425471   
C43      C      0.584326020000     0.151832950000     0.200817800000    -0.135407   
C44      C      0.604211735000     0.169136075000     0.203735070000     0.087322   
C45      C      0.627909140000     0.189702720000     0.207200960000     0.036822   
C46      C      0.647765590000     0.206888200000     0.210132360000    -0.042072   
C47      C      0.671372340000     0.227716910000     0.213694570000     0.286133   
C48      C      0.753376200000     0.227726430000     0.208736180000     0.354943   
C49      C      0.934515475000     0.092763240000     0.195975100000     0.482182   
C50      C      0.773884650000     0.209824575000     0.212372200000    -0.120326   
C51      C      0.914967750000     0.111970625000     0.194663600000    -0.163886   
C52      C      0.800376175000     0.219360250000     0.219793885000     0.151721   
C53      C      0.886482330000     0.103784420000     0.192084210000     0.179114   
C54      C      0.819424350000     0.202036860000     0.224333660000    -0.044615   
C55      C      0.867388900000     0.121686460000     0.194815265000    -0.060925   
C56      C      0.812709900000     0.175554250000     0.221295200000     0.023315   
C57      C      0.876273125000     0.147435175000     0.199577930000     0.032294   
C58      C      0.785996170000     0.165609240000     0.214829610000     0.06533    
C59      C      0.904752165000     0.156272920000     0.200610830000     0.059507   
C60      C      0.766325200000     0.182888940000     0.210377470000     0.115201   
C61      C      0.924289735000     0.138310970000     0.198174800000     0.130537   
C62      C      0.835633800000     0.159672825000     0.219777120000     0.21846    
C63      C      0.855068625000     0.164788440000     0.203174300000     0.214769   
C64      C      0.964728000000     0.038948765000     0.405273200000     0.05362    
C65      C      0.972974400000     0.033389220000     0.499635250000    -0.020517   
C66      C      0.945214150000     0.021722905000     0.394464950000    -0.082429   
C67      C      0.992496300000     0.050608365000     0.010442255000     0.005809   
C68      C      0.927537235000     0.003498600000     0.407125800000     0.048605   
C69      C      0.510184465000     0.068822125000     0.497784100000    -0.510516   
C70      C      0.982295200000     0.057458765000     0.392314285000    -0.05909    
C71      C      0.955392630000     0.014889665000     0.012596490000    -0.006858   
C72      C      0.958787470000     0.041199125000     0.288237150000    -0.221871   
C73      C      0.978834150000     0.031122150000     0.116674780000    -0.154219   
C74      C      0.951008975000     0.017259205000     0.465387100000     0.002462   
C75      C      0.986699100000     0.055073455000     0.439525100000     0.004479   
C76      C      0.988887250000     0.053569740000     0.463180900000    -0.00802    
C77      C      0.948826135000     0.018757810000     0.441725670000     0.015397   
C78      C      0.970962735000     0.034731820000     0.475954100000    -0.007968   
C79      C      0.966745150000     0.037600950000     0.428953450000    -0.022192   
C80      C      0.933899820000     0.498771220000     0.478984265000    -0.010648   
C81      C      0.503798365000     0.073571240000     0.425925000000    -0.018256   
C82      C      0.936094880000     0.497671900000     0.002092240000    -0.019558   
C83      C      0.501592575000     0.074678750000     0.402818700000    -0.010528   
C84      C      0.957867350000     0.041191945000     0.263663850000     0.379998   
C85      C      0.979734250000     0.031106245000     0.141253590000     0.273018   
C86      C      0.929195750000     0.002041585000     0.430268250000    -0.013796   
C87      C      0.508526265000     0.070276930000     0.474641470000     0.190823   
C88      C      0.943982250000     0.023013740000     0.371057300000     0.200989   
C89      C      0.993722020000     0.049321150000     0.033855440000     0.035143   
C90      C      0.980235500000     0.058210915000     0.368958550000     0.197565   
C91      C      0.957437425000     0.014150200000     0.035954715000     0.077911   
C92      C      0.982715900000     0.033069215000     0.322267620000    -0.050789   
C93      C      0.955023800000     0.039443055000     0.082623960000    -0.207304   
C94      C      0.981948465000     0.033007450000     0.298990900000     0.176753   
C95      C      0.955767630000     0.039487825000     0.105902255000     0.390911   
C96      C      0.936570315000     0.049491395000     0.301300300000     0.43766    
C97      C      0.500980855000     0.022684890000     0.103624820000     0.277471   
C98      C      0.937605450000     0.049515115000     0.324576900000    -0.232285   
C99      C      0.999970550000     0.022685605000     0.080346880000     0.079798   
C100     C      0.960609080000     0.041295710000     0.335023375000     0.188958   
C101     C      0.977060700000     0.031069230000     0.069885790000     0.124366   
C102     C      0.983620750000     0.460374650000     0.215322865000     0.304404   
C103     C      0.704429910000     0.361799180000     0.189938875000     0.455678   
C104     C      0.676341800000     0.371054700000     0.192517490000    -0.227026   
C105     C      0.511787405000     0.451100550000     0.213191900000     0.754792   
C106     C      0.671410150000     0.394656420000     0.182148860000     0.300336   
C107     C      0.516145300000     0.426964430000     0.222906635000    -0.268325   
C108     C      0.645430190000     0.403803050000     0.184389280000     0.223257   
C109     C      0.542202735000     0.417917670000     0.221347230000     0.456655   
C110     C      0.623645575000     0.389837000000     0.197130920000    -0.100129   
C111     C      0.564745420000     0.432501550000     0.209979550000    -0.206333   
C112     C      0.627930300000     0.365899175000     0.207657200000     0.091044   
C113     C      0.561038385000     0.456909120000     0.200043230000     0.236787   
C114     C      0.654419150000     0.356525050000     0.205281550000     0.179045   
C115     C      0.534432920000     0.466196950000     0.201713980000    -0.072922   
C116     C      0.596079485000     0.400275700000     0.198532100000     0.118728   
C117     C      0.592322440000     0.422401650000     0.209698885000     0.193679   
C118     C      0.770059735000     0.341257720000     0.222274170000     0.390611   
C119     C      0.792598550000     0.362941700000     0.216221290000    -0.072563   
C120     C      0.811397970000     0.380984150000     0.211191100000     0.092732   
C121     C      0.833999700000     0.402420750000     0.205208035000     0.010909   
C122     C      0.853084900000     0.420377880000     0.200197740000     0.034858   
C123     C      0.875769735000     0.441777750000     0.194232480000     0.045956   
C124     C      0.894731800000     0.459702700000     0.189203040000     0.002187   
C125     C      0.917713435000     0.481008680000     0.183185680000     0.161537   
C126     C      0.741483165000     0.303696500000     0.081667900000    -0.294432   
C127     C      0.691912560000     0.289663500000     0.083350060000    -0.295428   
C128     C      0.702545615000     0.288982630000     0.322581450000    -0.294214   
C129     C      0.740713910000     0.262417525000     0.324235100000    -0.293542   
C130     C      0.741153225000     0.305639050000     0.104962585000     0.48988    
C131     C      0.691352000000     0.291499465000     0.106655955000     0.492614   
C132     C      0.702917650000     0.287173700000     0.299275700000     0.49517    
C133     C      0.741234735000     0.260456150000     0.300939680000     0.495927   
C134     C      0.716025500000     0.299535150000     0.117737235000    -0.349364   
C135     C      0.722300530000     0.272847250000     0.288179900000    -0.34263    
C136     C      0.716918675000     0.295736430000     0.070828260000     0.279355   
C137     C      0.721407415000     0.276645950000     0.335088900000     0.281214   
C138     C      0.715556530000     0.301529800000     0.142367660000     0.380521   
C139     C      0.722769530000     0.270852625000     0.263549500000     0.390221   
C140     C      0.724909200000     0.310875050000     0.462884550000     0.008756   
C141     C      0.712964920000     0.263429375000     0.466767000000     0.00147    
C142     C      0.712097080000     0.261696575000     0.443032950000     0.031332   
C143     C      0.726680890000     0.308763830000     0.439149700000     0.029108   
C144     C      0.718713610000     0.288102700000     0.476562380000     0.006182   
C145     C      0.719612465000     0.284279750000     0.429354750000    -0.028241   
C146     C      0.728904890000     0.335090725000     0.473520450000    -0.041314   
C147     C      0.708487185000     0.241237415000     0.481163300000    -0.027827   
C148     C      0.703715665000     0.238100840000     0.432394300000    -0.054382   
C149     C      0.735539125000     0.330331685000     0.424747250000    -0.052852   
C150     C      0.728011175000     0.336761325000     0.496768100000     0.009974   
C151     C      0.708507360000     0.243335400000     0.004366575000    -0.010959   
C152     C      0.703853160000     0.236547470000     0.409150870000     0.019368   
C153     C      0.736285925000     0.328124075000     0.401548350000     0.019105   
C154     C      0.722988350000     0.314407900000     0.010333540000    -0.060042   
C155     C      0.713080250000     0.267575650000     0.014144005000    -0.054824   
C156     C      0.712222650000     0.258420700000     0.395579815000    -0.072152   
C157     C      0.728357910000     0.304364450000     0.391767250000    -0.071711   
C158     C      0.718265325000     0.290026750000     0.000329495000     0.045178   
C159     C      0.720060720000     0.282355650000     0.405587585000     0.068247   
C160     C      0.722338850000     0.315888375000     0.033828080000     0.193861   
C161     C      0.712836340000     0.269894780000     0.037567675000     0.192178   
C162     C      0.712710400000     0.256968080000     0.372089650000     0.199559   
C163     C      0.728766575000     0.302013665000     0.368348865000     0.19952    
N164     N      0.808120130000     0.246454800000     0.223182710000    -0.024262   
N165     N      0.876712085000     0.077537250000     0.186569660000    -0.022003   
N166     N      0.953187375000     0.146331070000     0.201508375000    -0.022715   
N167     N      0.738997040000     0.173123630000     0.203454550000    -0.012048   
N168     N      0.779798650000     0.138464435000     0.210639500000    -0.008878   
N169     N      0.913805050000     0.183014850000     0.204935950000    -0.000851   
N170     N      0.961460450000     0.040984690000     0.358900400000    -0.182204   
N171     N      0.976221550000     0.031371190000     0.046011450000    -0.131866   
N172     N      0.717378900000     0.293796780000     0.046883760000    -0.195513   
N173     N      0.720947160000     0.278585670000     0.359033350000    -0.197379   
O174     O      0.502625195000     0.082013255000     0.207454800000    -3.63849    
O175     O      0.666971900000     0.251529400000     0.215345190000    -0.589189   
O176     O      0.696544990000     0.222508535000     0.215351120000    -0.317276   
O177     O      0.509093870000     0.087187670000     0.171368120000    -1.68198    
O178     O      0.718087910000     0.285796350000     0.203138290000    -0.945876   
O179     O      0.968827850000     0.035586225000     0.202344580000    -0.726539   
O180     O      0.730136260000     0.223795250000     0.220029565000    -0.241079   
O181     O      0.957636685000     0.096564730000     0.184498190000    -0.402247   
O182     O      0.759471775000     0.247911320000     0.195877730000    -0.50411    
O183     O      0.928301200000     0.072448665000     0.208650010000    -0.930962   
O184     O      0.832915600000     0.257011920000     0.216783300000    -0.07075    
O185     O      0.792740500000     0.259212850000     0.236371575000    -0.096786   
O186     O      0.852053000000     0.067284865000     0.193655120000    -0.057982   
O187     O      0.890731065000     0.065048775000     0.172098130000    -0.064123   
O188     O      0.961252800000     0.153362250000     0.221298700000    -0.073873   
O189     O      0.970712500000     0.149786325000     0.184305370000    -0.071687   
O190     O      0.728695035000     0.182807535000     0.185685485000    -0.092596   
O191     O      0.724647460000     0.153988900000     0.214536920000    -0.050765   
O192     O      0.770476280000     0.130880860000     0.191349670000    -0.056855   
O193     O      0.782803150000     0.121264810000     0.226273800000    -0.027436   
O194     O      0.901601600000     0.195111550000     0.220793860000    -0.050238   
O195     O      0.934918150000     0.195168910000     0.193489800000    -0.049305   
O196     O      0.975019870000     0.028429155000     0.252244000000    -0.386794   
O197     O      0.962577550000     0.043865325000     0.152673840000    -0.328563   
O198     O      0.940024150000     0.054116090000     0.253874900000    -0.271935   
O199     O      0.997573300000     0.018178390000     0.151042880000    -0.253515   
O200     O      0.925748400000     0.006267595000     0.360451430000    -0.171222   
O201     O      0.511971355000     0.066050170000     0.044458570000    -0.157439   
O202     O      0.940835985000     0.496403450000     0.048569200000    -0.100608   
O203     O      0.996814350000     0.075982980000     0.356348150000    -0.164094   
O204     O      0.962262650000     0.442526100000     0.219549050000    -0.119282   
O205     O      0.725750550000     0.379650980000     0.185623100000    -0.165819   
O206     O      0.982297000000     0.485595400000     0.213301835000    -0.460589   
O207     O      0.705716225000     0.336581650000     0.191870330000    -0.6514     
O208     O      0.529770540000     0.489609250000     0.191810950000    -0.153231   
O209     O      0.659745170000     0.333629670000     0.215757280000    -0.356499   
O210     O      0.613148000000     0.436597170000     0.221127525000    -0.240849   
O211     O      0.573783420000     0.387545700000     0.187785350000    -0.226505   
O212     O      0.607150965000     0.351367175000     0.220532120000    -0.259126   
O213     O      0.582532885000     0.472015680000     0.188424550000    -0.263277   
O214     O      0.760340200000     0.325204730000     0.207746600000    -0.720137   
O215     O      0.943400850000     0.477296300000     0.184651985000    -0.109257   
O216     O      0.912574470000     0.003443600000     0.176282065000    -0.324306   
O217     O      0.759308575000     0.337936520000     0.242200480000    -0.325911   
O218     O      0.735594170000     0.315256800000     0.151813985000    -0.285937   
O219     O      0.695111550000     0.289535100000     0.154313150000    -0.417705   
O220     O      0.711265730000     0.287427650000     0.251613020000    -0.443134   
O221     O      0.734680700000     0.252545300000     0.254094100000    -0.27579    
O222     O      0.726435735000     0.339199250000     0.043585720000    -0.168959   
O223     O      0.708298830000     0.248458280000     0.050956545000    -0.177757   
O224     O      0.704831870000     0.234190900000     0.362333715000    -0.17222    
O225     O      0.737085750000     0.322916400000     0.354958265000    -0.171189   
F226     F      0.854702300000     0.185458000000     0.188774185000    -0.397013   
F227     F      0.836258620000     0.139218660000     0.234338120000    -0.387382   
F228     F      0.913666425000     0.057210380000     0.291730435000    -0.426227   
F229     F      0.523792625000     0.014788435000     0.113203585000    -0.397725   
F230     F      0.933758020000     0.047388690000     0.117745640000    -0.430243   
F231     F      0.504027365000     0.025258355000     0.287130175000    -0.29682    
F232     F      0.691590665000     0.408793550000     0.169241815000    -0.371696   
F233     F      0.995333950000     0.412192650000     0.234643350000    -0.662241   
F234     F      0.545656110000     0.394895600000     0.231526060000    -0.42733    
F235     F      0.641371150000     0.426444650000     0.173841910000    -0.374871   
F236     F      0.765509515000     0.313023985000     0.114925085000    -0.453126   
F237     F      0.666589080000     0.285852750000     0.118216275000    -0.454966   
F238     F      0.683978615000     0.299056085000     0.287730000000    -0.453238   
F239     F      0.760586680000     0.246826140000     0.290963150000    -0.43852    
Zn0      Zn     0.695382700000     0.263302775000     0.724279790000     1.22235    
Zn1      Zn     0.747669710000     0.304626880000     0.718963200000     1.26384    
Zn2      Zn     0.733617485000     0.265532225000     0.680006700000     1.16003    
Zn3      Zn     0.695681765000     0.309723525000     0.689303530000     1.23819    
Zn4      Zn     0.943778485000     0.010443940000     0.687486110000     1.23173    
Zn5      Zn     0.999758870000     0.048302350000     0.682144715000     1.52172    
Zn6      Zn     0.948924700000     0.064260540000     0.711187550000     1.3404     
Zn7      Zn     0.982848970000     0.019335720000     0.728560865000     2.84395    
H8       H      0.845360000000     0.115608985000     0.693132700000     0.112872   
H9       H      0.840148925000     0.209314650000     0.729339110000     0.110898   
H10      H      0.920496150000     0.055843090000     0.834569050000     0.149401   
H11      H      0.517023025000     0.016239475000     0.570363400000     0.085354   
H12      H      0.937317430000     0.045960305000     0.574393750000     0.136878   
H13      H      0.500494955000     0.026675285000     0.830487700000     0.113526   
H14      H      0.914584370000     0.487484650000     0.938543900000     0.041506   
H15      H      0.523146985000     0.084826395000     0.966364325000     0.013168   
H16      H      0.912223150000     0.490183350000     0.899182825000     0.059561   
H17      H      0.525503995000     0.082132170000     0.505726100000     0.396584   
H18      H      0.922393250000     0.483252950000     0.511725900000     0.072738   
H19      H      0.515284835000     0.089105165000     0.893186570000     0.062258   
H20      H      0.918406785000     0.484714000000     0.972473950000     0.050659   
H21      H      0.519287765000     0.087630590000     0.932440520000     0.054184   
H22      H      0.547294505000     0.498478830000     0.684906200000     0.164638   
H23      H      0.642651825000     0.325097470000     0.723593340000     0.186333   
H24      H      0.629139470000     0.426475450000     0.723043815000     0.182708   
H25      H      0.580252865000     0.372333600000     0.680143300000     0.172861   
H26      H      0.590736130000     0.361016480000     0.722692100000     0.197091   
H27      H      0.598733560000     0.462153250000     0.685965270000     0.215805   
H28      H      0.732238725000     0.353334600000     0.964398000000     0.057954   
H29      H      0.705456630000     0.221765250000     0.975090830000     0.052727   
H30      H      0.696329280000     0.220442520000     0.941522250000     0.058294   
H31      H      0.742636040000     0.349221170000     0.930823200000     0.058955   
H32      H      0.731276780000     0.355772165000     0.504066825000     0.060899   
H33      H      0.704910385000     0.225742340000     0.514633415000     0.064339   
H34      H      0.697302950000     0.217999085000     0.901853700000     0.058013   
H35      H      0.743170575000     0.345250070000     0.891280300000     0.058929   
H36      H      0.760890150000     0.308260650000     0.571973560000     0.160506   
H37      H      0.672847165000     0.283637750000     0.574937580000     0.161568   
H38      H      0.687484000000     0.299879750000     0.831005350000     0.163547   
H39      H      0.755433975000     0.252982000000     0.833918125000     0.164068   
C40      C      0.516586745000     0.093879745000     0.690976450000     2.19477    
C41      C      0.540603565000     0.114305810000     0.694456175000    -0.774955   
C42      C      0.560585515000     0.131344765000     0.697349640000     0.425471   
C43      C      0.584326020000     0.151832950000     0.700817800000    -0.135407   
C44      C      0.604211735000     0.169136075000     0.703735070000     0.087322   
C45      C      0.627909140000     0.189702720000     0.707200960000     0.036822   
C46      C      0.647765590000     0.206888200000     0.710132360000    -0.042072   
C47      C      0.671372340000     0.227716910000     0.713694570000     0.286133   
C48      C      0.753376200000     0.227726430000     0.708736180000     0.354943   
C49      C      0.934515475000     0.092763240000     0.695975100000     0.482182   
C50      C      0.773884650000     0.209824575000     0.712372200000    -0.120326   
C51      C      0.914967750000     0.111970625000     0.694663600000    -0.163886   
C52      C      0.800376175000     0.219360250000     0.719793885000     0.151721   
C53      C      0.886482330000     0.103784420000     0.692084210000     0.179114   
C54      C      0.819424350000     0.202036860000     0.724333660000    -0.044615   
C55      C      0.867388900000     0.121686460000     0.694815265000    -0.060925   
C56      C      0.812709900000     0.175554250000     0.721295200000     0.023315   
C57      C      0.876273125000     0.147435175000     0.699577930000     0.032294   
C58      C      0.785996170000     0.165609240000     0.714829610000     0.06533    
C59      C      0.904752165000     0.156272920000     0.700610830000     0.059507   
C60      C      0.766325200000     0.182888940000     0.710377470000     0.115201   
C61      C      0.924289735000     0.138310970000     0.698174800000     0.130537   
C62      C      0.835633800000     0.159672825000     0.719777120000     0.21846    
C63      C      0.855068625000     0.164788440000     0.703174300000     0.214769   
C64      C      0.964728000000     0.038948765000     0.905273200000     0.05362    
C65      C      0.972974400000     0.033389220000     0.999635250000    -0.020517   
C66      C      0.945214150000     0.021722905000     0.894464950000    -0.082429   
C67      C      0.992496300000     0.050608365000     0.510442255000     0.005809   
C68      C      0.927537235000     0.003498600000     0.907125800000     0.048605   
C69      C      0.510184465000     0.068822125000     0.997784100000    -0.510516   
C70      C      0.982295200000     0.057458765000     0.892314285000    -0.05909    
C71      C      0.955392630000     0.014889665000     0.512596490000    -0.006858   
C72      C      0.958787470000     0.041199125000     0.788237150000    -0.221871   
C73      C      0.978834150000     0.031122150000     0.616674780000    -0.154219   
C74      C      0.951008975000     0.017259205000     0.965387100000     0.002462   
C75      C      0.986699100000     0.055073455000     0.939525100000     0.004479   
C76      C      0.988887250000     0.053569740000     0.963180900000    -0.00802    
C77      C      0.948826135000     0.018757810000     0.941725670000     0.015397   
C78      C      0.970962735000     0.034731820000     0.975954100000    -0.007968   
C79      C      0.966745150000     0.037600950000     0.928953450000    -0.022192   
C80      C      0.933899820000     0.498771220000     0.978984265000    -0.010648   
C81      C      0.503798365000     0.073571240000     0.925925000000    -0.018256   
C82      C      0.936094880000     0.497671900000     0.502092240000    -0.019558   
C83      C      0.501592575000     0.074678750000     0.902818700000    -0.010528   
C84      C      0.957867350000     0.041191945000     0.763663850000     0.379998   
C85      C      0.979734250000     0.031106245000     0.641253590000     0.273018   
C86      C      0.929195750000     0.002041585000     0.930268250000    -0.013796   
C87      C      0.508526265000     0.070276930000     0.974641470000     0.190823   
C88      C      0.943982250000     0.023013740000     0.871057300000     0.200989   
C89      C      0.993722020000     0.049321150000     0.533855440000     0.035143   
C90      C      0.980235500000     0.058210915000     0.868958550000     0.197565   
C91      C      0.957437425000     0.014150200000     0.535954715000     0.077911   
C92      C      0.982715900000     0.033069215000     0.822267620000    -0.050789   
C93      C      0.955023800000     0.039443055000     0.582623960000    -0.207304   
C94      C      0.981948465000     0.033007450000     0.798990900000     0.176753   
C95      C      0.955767630000     0.039487825000     0.605902255000     0.390911   
C96      C      0.936570315000     0.049491395000     0.801300300000     0.43766    
C97      C      0.500980855000     0.022684890000     0.603624820000     0.277471   
C98      C      0.937605450000     0.049515115000     0.824576900000    -0.232285   
C99      C      0.999970550000     0.022685605000     0.580346880000     0.079798   
C100     C      0.960609080000     0.041295710000     0.835023375000     0.188958   
C101     C      0.977060700000     0.031069230000     0.569885790000     0.124366   
C102     C      0.983620750000     0.460374650000     0.715322865000     0.304404   
C103     C      0.704429910000     0.361799180000     0.689938875000     0.455678   
C104     C      0.676341800000     0.371054700000     0.692517490000    -0.227026   
C105     C      0.511787405000     0.451100550000     0.713191900000     0.754792   
C106     C      0.671410150000     0.394656420000     0.682148860000     0.300336   
C107     C      0.516145300000     0.426964430000     0.722906635000    -0.268325   
C108     C      0.645430190000     0.403803050000     0.684389280000     0.223257   
C109     C      0.542202735000     0.417917670000     0.721347230000     0.456655   
C110     C      0.623645575000     0.389837000000     0.697130920000    -0.100129   
C111     C      0.564745420000     0.432501550000     0.709979550000    -0.206333   
C112     C      0.627930300000     0.365899175000     0.707657200000     0.091044   
C113     C      0.561038385000     0.456909120000     0.700043230000     0.236787   
C114     C      0.654419150000     0.356525050000     0.705281550000     0.179045   
C115     C      0.534432920000     0.466196950000     0.701713980000    -0.072922   
C116     C      0.596079485000     0.400275700000     0.698532100000     0.118728   
C117     C      0.592322440000     0.422401650000     0.709698885000     0.193679   
C118     C      0.770059735000     0.341257720000     0.722274170000     0.390611   
C119     C      0.792598550000     0.362941700000     0.716221290000    -0.072563   
C120     C      0.811397970000     0.380984150000     0.711191100000     0.092732   
C121     C      0.833999700000     0.402420750000     0.705208035000     0.010909   
C122     C      0.853084900000     0.420377880000     0.700197740000     0.034858   
C123     C      0.875769735000     0.441777750000     0.694232480000     0.045956   
C124     C      0.894731800000     0.459702700000     0.689203040000     0.002187   
C125     C      0.917713435000     0.481008680000     0.683185680000     0.161537   
C126     C      0.741483165000     0.303696500000     0.581667900000    -0.294432   
C127     C      0.691912560000     0.289663500000     0.583350060000    -0.295428   
C128     C      0.702545615000     0.288982630000     0.822581450000    -0.294214   
C129     C      0.740713910000     0.262417525000     0.824235100000    -0.293542   
C130     C      0.741153225000     0.305639050000     0.604962585000     0.48988    
C131     C      0.691352000000     0.291499465000     0.606655955000     0.492614   
C132     C      0.702917650000     0.287173700000     0.799275700000     0.49517    
C133     C      0.741234735000     0.260456150000     0.800939680000     0.495927   
C134     C      0.716025500000     0.299535150000     0.617737235000    -0.349364   
C135     C      0.722300530000     0.272847250000     0.788179900000    -0.34263    
C136     C      0.716918675000     0.295736430000     0.570828260000     0.279355   
C137     C      0.721407415000     0.276645950000     0.835088900000     0.281214   
C138     C      0.715556530000     0.301529800000     0.642367660000     0.380521   
C139     C      0.722769530000     0.270852625000     0.763549500000     0.390221   
C140     C      0.724909200000     0.310875050000     0.962884550000     0.008756   
C141     C      0.712964920000     0.263429375000     0.966767000000     0.00147    
C142     C      0.712097080000     0.261696575000     0.943032950000     0.031332   
C143     C      0.726680890000     0.308763830000     0.939149700000     0.029108   
C144     C      0.718713610000     0.288102700000     0.976562380000     0.006182   
C145     C      0.719612465000     0.284279750000     0.929354750000    -0.028241   
C146     C      0.728904890000     0.335090725000     0.973520450000    -0.041314   
C147     C      0.708487185000     0.241237415000     0.981163300000    -0.027827   
C148     C      0.703715665000     0.238100840000     0.932394300000    -0.054382   
C149     C      0.735539125000     0.330331685000     0.924747250000    -0.052852   
C150     C      0.728011175000     0.336761325000     0.996768100000     0.009974   
C151     C      0.708507360000     0.243335400000     0.504366575000    -0.010959   
C152     C      0.703853160000     0.236547470000     0.909150870000     0.019368   
C153     C      0.736285925000     0.328124075000     0.901548350000     0.019105   
C154     C      0.722988350000     0.314407900000     0.510333540000    -0.060042   
C155     C      0.713080250000     0.267575650000     0.514144005000    -0.054824   
C156     C      0.712222650000     0.258420700000     0.895579815000    -0.072152   
C157     C      0.728357910000     0.304364450000     0.891767250000    -0.071711   
C158     C      0.718265325000     0.290026750000     0.500329495000     0.045178   
C159     C      0.720060720000     0.282355650000     0.905587585000     0.068247   
C160     C      0.722338850000     0.315888375000     0.533828080000     0.193861   
C161     C      0.712836340000     0.269894780000     0.537567675000     0.192178   
C162     C      0.712710400000     0.256968080000     0.872089650000     0.199559   
C163     C      0.728766575000     0.302013665000     0.868348865000     0.19952    
N164     N      0.808120130000     0.246454800000     0.723182710000    -0.024262   
N165     N      0.876712085000     0.077537250000     0.686569660000    -0.022003   
N166     N      0.953187375000     0.146331070000     0.701508375000    -0.022715   
N167     N      0.738997040000     0.173123630000     0.703454550000    -0.012048   
N168     N      0.779798650000     0.138464435000     0.710639500000    -0.008878   
N169     N      0.913805050000     0.183014850000     0.704935950000    -0.000851   
N170     N      0.961460450000     0.040984690000     0.858900400000    -0.182204   
N171     N      0.976221550000     0.031371190000     0.546011450000    -0.131866   
N172     N      0.717378900000     0.293796780000     0.546883760000    -0.195513   
N173     N      0.720947160000     0.278585670000     0.859033350000    -0.197379   
O174     O      0.502625195000     0.082013255000     0.707454800000    -3.63849    
O175     O      0.666971900000     0.251529400000     0.715345190000    -0.589189   
O176     O      0.696544990000     0.222508535000     0.715351120000    -0.317276   
O177     O      0.509093870000     0.087187670000     0.671368120000    -1.68198    
O178     O      0.718087910000     0.285796350000     0.703138290000    -0.945876   
O179     O      0.968827850000     0.035586225000     0.702344580000    -0.726539   
O180     O      0.730136260000     0.223795250000     0.720029565000    -0.241079   
O181     O      0.957636685000     0.096564730000     0.684498190000    -0.402247   
O182     O      0.759471775000     0.247911320000     0.695877730000    -0.50411    
O183     O      0.928301200000     0.072448665000     0.708650010000    -0.930962   
O184     O      0.832915600000     0.257011920000     0.716783300000    -0.07075    
O185     O      0.792740500000     0.259212850000     0.736371575000    -0.096786   
O186     O      0.852053000000     0.067284865000     0.693655120000    -0.057982   
O187     O      0.890731065000     0.065048775000     0.672098130000    -0.064123   
O188     O      0.961252800000     0.153362250000     0.721298700000    -0.073873   
O189     O      0.970712500000     0.149786325000     0.684305370000    -0.071687   
O190     O      0.728695035000     0.182807535000     0.685685485000    -0.092596   
O191     O      0.724647460000     0.153988900000     0.714536920000    -0.050765   
O192     O      0.770476280000     0.130880860000     0.691349670000    -0.056855   
O193     O      0.782803150000     0.121264810000     0.726273800000    -0.027436   
O194     O      0.901601600000     0.195111550000     0.720793860000    -0.050238   
O195     O      0.934918150000     0.195168910000     0.693489800000    -0.049305   
O196     O      0.975019870000     0.028429155000     0.752244000000    -0.386794   
O197     O      0.962577550000     0.043865325000     0.652673840000    -0.328563   
O198     O      0.940024150000     0.054116090000     0.753874900000    -0.271935   
O199     O      0.997573300000     0.018178390000     0.651042880000    -0.253515   
O200     O      0.925748400000     0.006267595000     0.860451430000    -0.171222   
O201     O      0.511971355000     0.066050170000     0.544458570000    -0.157439   
O202     O      0.940835985000     0.496403450000     0.548569200000    -0.100608   
O203     O      0.996814350000     0.075982980000     0.856348150000    -0.164094   
O204     O      0.962262650000     0.442526100000     0.719549050000    -0.119282   
O205     O      0.725750550000     0.379650980000     0.685623100000    -0.165819   
O206     O      0.982297000000     0.485595400000     0.713301835000    -0.460589   
O207     O      0.705716225000     0.336581650000     0.691870330000    -0.6514     
O208     O      0.529770540000     0.489609250000     0.691810950000    -0.153231   
O209     O      0.659745170000     0.333629670000     0.715757280000    -0.356499   
O210     O      0.613148000000     0.436597170000     0.721127525000    -0.240849   
O211     O      0.573783420000     0.387545700000     0.687785350000    -0.226505   
O212     O      0.607150965000     0.351367175000     0.720532120000    -0.259126   
O213     O      0.582532885000     0.472015680000     0.688424550000    -0.263277   
O214     O      0.760340200000     0.325204730000     0.707746600000    -0.720137   
O215     O      0.943400850000     0.477296300000     0.684651985000    -0.109257   
O216     O      0.912574470000     0.003443600000     0.676282065000    -0.324306   
O217     O      0.759308575000     0.337936520000     0.742200480000    -0.325911   
O218     O      0.735594170000     0.315256800000     0.651813985000    -0.285937   
O219     O      0.695111550000     0.289535100000     0.654313150000    -0.417705   
O220     O      0.711265730000     0.287427650000     0.751613020000    -0.443134   
O221     O      0.734680700000     0.252545300000     0.754094100000    -0.27579    
O222     O      0.726435735000     0.339199250000     0.543585720000    -0.168959   
O223     O      0.708298830000     0.248458280000     0.550956545000    -0.177757   
O224     O      0.704831870000     0.234190900000     0.862333715000    -0.17222    
O225     O      0.737085750000     0.322916400000     0.854958265000    -0.171189   
F226     F      0.854702300000     0.185458000000     0.688774185000    -0.397013   
F227     F      0.836258620000     0.139218660000     0.734338120000    -0.387382   
F228     F      0.913666425000     0.057210380000     0.791730435000    -0.426227   
F229     F      0.523792625000     0.014788435000     0.613203585000    -0.397725   
F230     F      0.933758020000     0.047388690000     0.617745640000    -0.430243   
F231     F      0.504027365000     0.025258355000     0.787130175000    -0.29682    
F232     F      0.691590665000     0.408793550000     0.669241815000    -0.371696   
F233     F      0.995333950000     0.412192650000     0.734643350000    -0.662241   
F234     F      0.545656110000     0.394895600000     0.731526060000    -0.42733    
F235     F      0.641371150000     0.426444650000     0.673841910000    -0.374871   
F236     F      0.765509515000     0.313023985000     0.614925085000    -0.453126   
F237     F      0.666589080000     0.285852750000     0.618216275000    -0.454966   
F238     F      0.683978615000     0.299056085000     0.787730000000    -0.453238   
F239     F      0.760586680000     0.246826140000     0.790963150000    -0.43852    
Zn0      Zn     0.695382700000     0.763302775000     0.224279790000     1.22235    
Zn1      Zn     0.747669710000     0.804626880000     0.218963200000     1.26384    
Zn2      Zn     0.733617485000     0.765532225000     0.180006700000     1.16003    
Zn3      Zn     0.695681765000     0.809723525000     0.189303530000     1.23819    
Zn4      Zn     0.943778485000     0.510443940000     0.187486110000     1.23173    
Zn5      Zn     0.999758870000     0.548302350000     0.182144715000     1.52172    
Zn6      Zn     0.948924700000     0.564260540000     0.211187550000     1.3404     
Zn7      Zn     0.982848970000     0.519335720000     0.228560865000     2.84395    
H8       H      0.845360000000     0.615608985000     0.193132700000     0.112872   
H9       H      0.840148925000     0.709314650000     0.229339110000     0.110898   
H10      H      0.920496150000     0.555843090000     0.334569050000     0.149401   
H11      H      0.517023025000     0.516239475000     0.070363400000     0.085354   
H12      H      0.937317430000     0.545960305000     0.074393750000     0.136878   
H13      H      0.500494955000     0.526675285000     0.330487700000     0.113526   
H14      H      0.914584370000     0.987484650000     0.438543900000     0.041506   
H15      H      0.523146985000     0.584826395000     0.466364325000     0.013168   
H16      H      0.912223150000     0.990183350000     0.399182825000     0.059561   
H17      H      0.525503995000     0.582132170000     0.005726100000     0.396584   
H18      H      0.922393250000     0.983252950000     0.011725900000     0.072738   
H19      H      0.515284835000     0.589105165000     0.393186570000     0.062258   
H20      H      0.918406785000     0.984714000000     0.472473950000     0.050659   
H21      H      0.519287765000     0.587630590000     0.432440520000     0.054184   
H22      H      0.547294505000     0.998478830000     0.184906200000     0.164638   
H23      H      0.642651825000     0.825097470000     0.223593340000     0.186333   
H24      H      0.629139470000     0.926475450000     0.223043815000     0.182708   
H25      H      0.580252865000     0.872333600000     0.180143300000     0.172861   
H26      H      0.590736130000     0.861016480000     0.222692100000     0.197091   
H27      H      0.598733560000     0.962153250000     0.185965270000     0.215805   
H28      H      0.732238725000     0.853334600000     0.464398000000     0.057954   
H29      H      0.705456630000     0.721765250000     0.475090830000     0.052727   
H30      H      0.696329280000     0.720442520000     0.441522250000     0.058294   
H31      H      0.742636040000     0.849221170000     0.430823200000     0.058955   
H32      H      0.731276780000     0.855772165000     0.004066825000     0.060899   
H33      H      0.704910385000     0.725742340000     0.014633415000     0.064339   
H34      H      0.697302950000     0.717999085000     0.401853700000     0.058013   
H35      H      0.743170575000     0.845250070000     0.391280300000     0.058929   
H36      H      0.760890150000     0.808260650000     0.071973560000     0.160506   
H37      H      0.672847165000     0.783637750000     0.074937580000     0.161568   
H38      H      0.687484000000     0.799879750000     0.331005350000     0.163547   
H39      H      0.755433975000     0.752982000000     0.333918125000     0.164068   
C40      C      0.516586745000     0.593879745000     0.190976450000     2.19477    
C41      C      0.540603565000     0.614305810000     0.194456175000    -0.774955   
C42      C      0.560585515000     0.631344765000     0.197349640000     0.425471   
C43      C      0.584326020000     0.651832950000     0.200817800000    -0.135407   
C44      C      0.604211735000     0.669136075000     0.203735070000     0.087322   
C45      C      0.627909140000     0.689702720000     0.207200960000     0.036822   
C46      C      0.647765590000     0.706888200000     0.210132360000    -0.042072   
C47      C      0.671372340000     0.727716910000     0.213694570000     0.286133   
C48      C      0.753376200000     0.727726430000     0.208736180000     0.354943   
C49      C      0.934515475000     0.592763240000     0.195975100000     0.482182   
C50      C      0.773884650000     0.709824575000     0.212372200000    -0.120326   
C51      C      0.914967750000     0.611970625000     0.194663600000    -0.163886   
C52      C      0.800376175000     0.719360250000     0.219793885000     0.151721   
C53      C      0.886482330000     0.603784420000     0.192084210000     0.179114   
C54      C      0.819424350000     0.702036860000     0.224333660000    -0.044615   
C55      C      0.867388900000     0.621686460000     0.194815265000    -0.060925   
C56      C      0.812709900000     0.675554250000     0.221295200000     0.023315   
C57      C      0.876273125000     0.647435175000     0.199577930000     0.032294   
C58      C      0.785996170000     0.665609240000     0.214829610000     0.06533    
C59      C      0.904752165000     0.656272920000     0.200610830000     0.059507   
C60      C      0.766325200000     0.682888940000     0.210377470000     0.115201   
C61      C      0.924289735000     0.638310970000     0.198174800000     0.130537   
C62      C      0.835633800000     0.659672825000     0.219777120000     0.21846    
C63      C      0.855068625000     0.664788440000     0.203174300000     0.214769   
C64      C      0.964728000000     0.538948765000     0.405273200000     0.05362    
C65      C      0.972974400000     0.533389220000     0.499635250000    -0.020517   
C66      C      0.945214150000     0.521722905000     0.394464950000    -0.082429   
C67      C      0.992496300000     0.550608365000     0.010442255000     0.005809   
C68      C      0.927537235000     0.503498600000     0.407125800000     0.048605   
C69      C      0.510184465000     0.568822125000     0.497784100000    -0.510516   
C70      C      0.982295200000     0.557458765000     0.392314285000    -0.05909    
C71      C      0.955392630000     0.514889665000     0.012596490000    -0.006858   
C72      C      0.958787470000     0.541199125000     0.288237150000    -0.221871   
C73      C      0.978834150000     0.531122150000     0.116674780000    -0.154219   
C74      C      0.951008975000     0.517259205000     0.465387100000     0.002462   
C75      C      0.986699100000     0.555073455000     0.439525100000     0.004479   
C76      C      0.988887250000     0.553569740000     0.463180900000    -0.00802    
C77      C      0.948826135000     0.518757810000     0.441725670000     0.015397   
C78      C      0.970962735000     0.534731820000     0.475954100000    -0.007968   
C79      C      0.966745150000     0.537600950000     0.428953450000    -0.022192   
C80      C      0.933899820000     0.998771220000     0.478984265000    -0.010648   
C81      C      0.503798365000     0.573571240000     0.425925000000    -0.018256   
C82      C      0.936094880000     0.997671900000     0.002092240000    -0.019558   
C83      C      0.501592575000     0.574678750000     0.402818700000    -0.010528   
C84      C      0.957867350000     0.541191945000     0.263663850000     0.379998   
C85      C      0.979734250000     0.531106245000     0.141253590000     0.273018   
C86      C      0.929195750000     0.502041585000     0.430268250000    -0.013796   
C87      C      0.508526265000     0.570276930000     0.474641470000     0.190823   
C88      C      0.943982250000     0.523013740000     0.371057300000     0.200989   
C89      C      0.993722020000     0.549321150000     0.033855440000     0.035143   
C90      C      0.980235500000     0.558210915000     0.368958550000     0.197565   
C91      C      0.957437425000     0.514150200000     0.035954715000     0.077911   
C92      C      0.982715900000     0.533069215000     0.322267620000    -0.050789   
C93      C      0.955023800000     0.539443055000     0.082623960000    -0.207304   
C94      C      0.981948465000     0.533007450000     0.298990900000     0.176753   
C95      C      0.955767630000     0.539487825000     0.105902255000     0.390911   
C96      C      0.936570315000     0.549491395000     0.301300300000     0.43766    
C97      C      0.500980855000     0.522684890000     0.103624820000     0.277471   
C98      C      0.937605450000     0.549515115000     0.324576900000    -0.232285   
C99      C      0.999970550000     0.522685605000     0.080346880000     0.079798   
C100     C      0.960609080000     0.541295710000     0.335023375000     0.188958   
C101     C      0.977060700000     0.531069230000     0.069885790000     0.124366   
C102     C      0.983620750000     0.960374650000     0.215322865000     0.304404   
C103     C      0.704429910000     0.861799180000     0.189938875000     0.455678   
C104     C      0.676341800000     0.871054700000     0.192517490000    -0.227026   
C105     C      0.511787405000     0.951100550000     0.213191900000     0.754792   
C106     C      0.671410150000     0.894656420000     0.182148860000     0.300336   
C107     C      0.516145300000     0.926964430000     0.222906635000    -0.268325   
C108     C      0.645430190000     0.903803050000     0.184389280000     0.223257   
C109     C      0.542202735000     0.917917670000     0.221347230000     0.456655   
C110     C      0.623645575000     0.889837000000     0.197130920000    -0.100129   
C111     C      0.564745420000     0.932501550000     0.209979550000    -0.206333   
C112     C      0.627930300000     0.865899175000     0.207657200000     0.091044   
C113     C      0.561038385000     0.956909120000     0.200043230000     0.236787   
C114     C      0.654419150000     0.856525050000     0.205281550000     0.179045   
C115     C      0.534432920000     0.966196950000     0.201713980000    -0.072922   
C116     C      0.596079485000     0.900275700000     0.198532100000     0.118728   
C117     C      0.592322440000     0.922401650000     0.209698885000     0.193679   
C118     C      0.770059735000     0.841257720000     0.222274170000     0.390611   
C119     C      0.792598550000     0.862941700000     0.216221290000    -0.072563   
C120     C      0.811397970000     0.880984150000     0.211191100000     0.092732   
C121     C      0.833999700000     0.902420750000     0.205208035000     0.010909   
C122     C      0.853084900000     0.920377880000     0.200197740000     0.034858   
C123     C      0.875769735000     0.941777750000     0.194232480000     0.045956   
C124     C      0.894731800000     0.959702700000     0.189203040000     0.002187   
C125     C      0.917713435000     0.981008680000     0.183185680000     0.161537   
C126     C      0.741483165000     0.803696500000     0.081667900000    -0.294432   
C127     C      0.691912560000     0.789663500000     0.083350060000    -0.295428   
C128     C      0.702545615000     0.788982630000     0.322581450000    -0.294214   
C129     C      0.740713910000     0.762417525000     0.324235100000    -0.293542   
C130     C      0.741153225000     0.805639050000     0.104962585000     0.48988    
C131     C      0.691352000000     0.791499465000     0.106655955000     0.492614   
C132     C      0.702917650000     0.787173700000     0.299275700000     0.49517    
C133     C      0.741234735000     0.760456150000     0.300939680000     0.495927   
C134     C      0.716025500000     0.799535150000     0.117737235000    -0.349364   
C135     C      0.722300530000     0.772847250000     0.288179900000    -0.34263    
C136     C      0.716918675000     0.795736430000     0.070828260000     0.279355   
C137     C      0.721407415000     0.776645950000     0.335088900000     0.281214   
C138     C      0.715556530000     0.801529800000     0.142367660000     0.380521   
C139     C      0.722769530000     0.770852625000     0.263549500000     0.390221   
C140     C      0.724909200000     0.810875050000     0.462884550000     0.008756   
C141     C      0.712964920000     0.763429375000     0.466767000000     0.00147    
C142     C      0.712097080000     0.761696575000     0.443032950000     0.031332   
C143     C      0.726680890000     0.808763830000     0.439149700000     0.029108   
C144     C      0.718713610000     0.788102700000     0.476562380000     0.006182   
C145     C      0.719612465000     0.784279750000     0.429354750000    -0.028241   
C146     C      0.728904890000     0.835090725000     0.473520450000    -0.041314   
C147     C      0.708487185000     0.741237415000     0.481163300000    -0.027827   
C148     C      0.703715665000     0.738100840000     0.432394300000    -0.054382   
C149     C      0.735539125000     0.830331685000     0.424747250000    -0.052852   
C150     C      0.728011175000     0.836761325000     0.496768100000     0.009974   
C151     C      0.708507360000     0.743335400000     0.004366575000    -0.010959   
C152     C      0.703853160000     0.736547470000     0.409150870000     0.019368   
C153     C      0.736285925000     0.828124075000     0.401548350000     0.019105   
C154     C      0.722988350000     0.814407900000     0.010333540000    -0.060042   
C155     C      0.713080250000     0.767575650000     0.014144005000    -0.054824   
C156     C      0.712222650000     0.758420700000     0.395579815000    -0.072152   
C157     C      0.728357910000     0.804364450000     0.391767250000    -0.071711   
C158     C      0.718265325000     0.790026750000     0.000329495000     0.045178   
C159     C      0.720060720000     0.782355650000     0.405587585000     0.068247   
C160     C      0.722338850000     0.815888375000     0.033828080000     0.193861   
C161     C      0.712836340000     0.769894780000     0.037567675000     0.192178   
C162     C      0.712710400000     0.756968080000     0.372089650000     0.199559   
C163     C      0.728766575000     0.802013665000     0.368348865000     0.19952    
N164     N      0.808120130000     0.746454800000     0.223182710000    -0.024262   
N165     N      0.876712085000     0.577537250000     0.186569660000    -0.022003   
N166     N      0.953187375000     0.646331070000     0.201508375000    -0.022715   
N167     N      0.738997040000     0.673123630000     0.203454550000    -0.012048   
N168     N      0.779798650000     0.638464435000     0.210639500000    -0.008878   
N169     N      0.913805050000     0.683014850000     0.204935950000    -0.000851   
N170     N      0.961460450000     0.540984690000     0.358900400000    -0.182204   
N171     N      0.976221550000     0.531371190000     0.046011450000    -0.131866   
N172     N      0.717378900000     0.793796780000     0.046883760000    -0.195513   
N173     N      0.720947160000     0.778585670000     0.359033350000    -0.197379   
O174     O      0.502625195000     0.582013255000     0.207454800000    -3.63849    
O175     O      0.666971900000     0.751529400000     0.215345190000    -0.589189   
O176     O      0.696544990000     0.722508535000     0.215351120000    -0.317276   
O177     O      0.509093870000     0.587187670000     0.171368120000    -1.68198    
O178     O      0.718087910000     0.785796350000     0.203138290000    -0.945876   
O179     O      0.968827850000     0.535586225000     0.202344580000    -0.726539   
O180     O      0.730136260000     0.723795250000     0.220029565000    -0.241079   
O181     O      0.957636685000     0.596564730000     0.184498190000    -0.402247   
O182     O      0.759471775000     0.747911320000     0.195877730000    -0.50411    
O183     O      0.928301200000     0.572448665000     0.208650010000    -0.930962   
O184     O      0.832915600000     0.757011920000     0.216783300000    -0.07075    
O185     O      0.792740500000     0.759212850000     0.236371575000    -0.096786   
O186     O      0.852053000000     0.567284865000     0.193655120000    -0.057982   
O187     O      0.890731065000     0.565048775000     0.172098130000    -0.064123   
O188     O      0.961252800000     0.653362250000     0.221298700000    -0.073873   
O189     O      0.970712500000     0.649786325000     0.184305370000    -0.071687   
O190     O      0.728695035000     0.682807535000     0.185685485000    -0.092596   
O191     O      0.724647460000     0.653988900000     0.214536920000    -0.050765   
O192     O      0.770476280000     0.630880860000     0.191349670000    -0.056855   
O193     O      0.782803150000     0.621264810000     0.226273800000    -0.027436   
O194     O      0.901601600000     0.695111550000     0.220793860000    -0.050238   
O195     O      0.934918150000     0.695168910000     0.193489800000    -0.049305   
O196     O      0.975019870000     0.528429155000     0.252244000000    -0.386794   
O197     O      0.962577550000     0.543865325000     0.152673840000    -0.328563   
O198     O      0.940024150000     0.554116090000     0.253874900000    -0.271935   
O199     O      0.997573300000     0.518178390000     0.151042880000    -0.253515   
O200     O      0.925748400000     0.506267595000     0.360451430000    -0.171222   
O201     O      0.511971355000     0.566050170000     0.044458570000    -0.157439   
O202     O      0.940835985000     0.996403450000     0.048569200000    -0.100608   
O203     O      0.996814350000     0.575982980000     0.356348150000    -0.164094   
O204     O      0.962262650000     0.942526100000     0.219549050000    -0.119282   
O205     O      0.725750550000     0.879650980000     0.185623100000    -0.165819   
O206     O      0.982297000000     0.985595400000     0.213301835000    -0.460589   
O207     O      0.705716225000     0.836581650000     0.191870330000    -0.6514     
O208     O      0.529770540000     0.989609250000     0.191810950000    -0.153231   
O209     O      0.659745170000     0.833629670000     0.215757280000    -0.356499   
O210     O      0.613148000000     0.936597170000     0.221127525000    -0.240849   
O211     O      0.573783420000     0.887545700000     0.187785350000    -0.226505   
O212     O      0.607150965000     0.851367175000     0.220532120000    -0.259126   
O213     O      0.582532885000     0.972015680000     0.188424550000    -0.263277   
O214     O      0.760340200000     0.825204730000     0.207746600000    -0.720137   
O215     O      0.943400850000     0.977296300000     0.184651985000    -0.109257   
O216     O      0.912574470000     0.503443600000     0.176282065000    -0.324306   
O217     O      0.759308575000     0.837936520000     0.242200480000    -0.325911   
O218     O      0.735594170000     0.815256800000     0.151813985000    -0.285937   
O219     O      0.695111550000     0.789535100000     0.154313150000    -0.417705   
O220     O      0.711265730000     0.787427650000     0.251613020000    -0.443134   
O221     O      0.734680700000     0.752545300000     0.254094100000    -0.27579    
O222     O      0.726435735000     0.839199250000     0.043585720000    -0.168959   
O223     O      0.708298830000     0.748458280000     0.050956545000    -0.177757   
O224     O      0.704831870000     0.734190900000     0.362333715000    -0.17222    
O225     O      0.737085750000     0.822916400000     0.354958265000    -0.171189   
F226     F      0.854702300000     0.685458000000     0.188774185000    -0.397013   
F227     F      0.836258620000     0.639218660000     0.234338120000    -0.387382   
F228     F      0.913666425000     0.557210380000     0.291730435000    -0.426227   
F229     F      0.523792625000     0.514788435000     0.113203585000    -0.397725   
F230     F      0.933758020000     0.547388690000     0.117745640000    -0.430243   
F231     F      0.504027365000     0.525258355000     0.287130175000    -0.29682    
F232     F      0.691590665000     0.908793550000     0.169241815000    -0.371696   
F233     F      0.995333950000     0.912192650000     0.234643350000    -0.662241   
F234     F      0.545656110000     0.894895600000     0.231526060000    -0.42733    
F235     F      0.641371150000     0.926444650000     0.173841910000    -0.374871   
F236     F      0.765509515000     0.813023985000     0.114925085000    -0.453126   
F237     F      0.666589080000     0.785852750000     0.118216275000    -0.454966   
F238     F      0.683978615000     0.799056085000     0.287730000000    -0.453238   
F239     F      0.760586680000     0.746826140000     0.290963150000    -0.43852    
Zn0      Zn     0.695382700000     0.763302775000     0.724279790000     1.22235    
Zn1      Zn     0.747669710000     0.804626880000     0.718963200000     1.26384    
Zn2      Zn     0.733617485000     0.765532225000     0.680006700000     1.16003    
Zn3      Zn     0.695681765000     0.809723525000     0.689303530000     1.23819    
Zn4      Zn     0.943778485000     0.510443940000     0.687486110000     1.23173    
Zn5      Zn     0.999758870000     0.548302350000     0.682144715000     1.52172    
Zn6      Zn     0.948924700000     0.564260540000     0.711187550000     1.3404     
Zn7      Zn     0.982848970000     0.519335720000     0.728560865000     2.84395    
H8       H      0.845360000000     0.615608985000     0.693132700000     0.112872   
H9       H      0.840148925000     0.709314650000     0.729339110000     0.110898   
H10      H      0.920496150000     0.555843090000     0.834569050000     0.149401   
H11      H      0.517023025000     0.516239475000     0.570363400000     0.085354   
H12      H      0.937317430000     0.545960305000     0.574393750000     0.136878   
H13      H      0.500494955000     0.526675285000     0.830487700000     0.113526   
H14      H      0.914584370000     0.987484650000     0.938543900000     0.041506   
H15      H      0.523146985000     0.584826395000     0.966364325000     0.013168   
H16      H      0.912223150000     0.990183350000     0.899182825000     0.059561   
H17      H      0.525503995000     0.582132170000     0.505726100000     0.396584   
H18      H      0.922393250000     0.983252950000     0.511725900000     0.072738   
H19      H      0.515284835000     0.589105165000     0.893186570000     0.062258   
H20      H      0.918406785000     0.984714000000     0.972473950000     0.050659   
H21      H      0.519287765000     0.587630590000     0.932440520000     0.054184   
H22      H      0.547294505000     0.998478830000     0.684906200000     0.164638   
H23      H      0.642651825000     0.825097470000     0.723593340000     0.186333   
H24      H      0.629139470000     0.926475450000     0.723043815000     0.182708   
H25      H      0.580252865000     0.872333600000     0.680143300000     0.172861   
H26      H      0.590736130000     0.861016480000     0.722692100000     0.197091   
H27      H      0.598733560000     0.962153250000     0.685965270000     0.215805   
H28      H      0.732238725000     0.853334600000     0.964398000000     0.057954   
H29      H      0.705456630000     0.721765250000     0.975090830000     0.052727   
H30      H      0.696329280000     0.720442520000     0.941522250000     0.058294   
H31      H      0.742636040000     0.849221170000     0.930823200000     0.058955   
H32      H      0.731276780000     0.855772165000     0.504066825000     0.060899   
H33      H      0.704910385000     0.725742340000     0.514633415000     0.064339   
H34      H      0.697302950000     0.717999085000     0.901853700000     0.058013   
H35      H      0.743170575000     0.845250070000     0.891280300000     0.058929   
H36      H      0.760890150000     0.808260650000     0.571973560000     0.160506   
H37      H      0.672847165000     0.783637750000     0.574937580000     0.161568   
H38      H      0.687484000000     0.799879750000     0.831005350000     0.163547   
H39      H      0.755433975000     0.752982000000     0.833918125000     0.164068   
C40      C      0.516586745000     0.593879745000     0.690976450000     2.19477    
C41      C      0.540603565000     0.614305810000     0.694456175000    -0.774955   
C42      C      0.560585515000     0.631344765000     0.697349640000     0.425471   
C43      C      0.584326020000     0.651832950000     0.700817800000    -0.135407   
C44      C      0.604211735000     0.669136075000     0.703735070000     0.087322   
C45      C      0.627909140000     0.689702720000     0.707200960000     0.036822   
C46      C      0.647765590000     0.706888200000     0.710132360000    -0.042072   
C47      C      0.671372340000     0.727716910000     0.713694570000     0.286133   
C48      C      0.753376200000     0.727726430000     0.708736180000     0.354943   
C49      C      0.934515475000     0.592763240000     0.695975100000     0.482182   
C50      C      0.773884650000     0.709824575000     0.712372200000    -0.120326   
C51      C      0.914967750000     0.611970625000     0.694663600000    -0.163886   
C52      C      0.800376175000     0.719360250000     0.719793885000     0.151721   
C53      C      0.886482330000     0.603784420000     0.692084210000     0.179114   
C54      C      0.819424350000     0.702036860000     0.724333660000    -0.044615   
C55      C      0.867388900000     0.621686460000     0.694815265000    -0.060925   
C56      C      0.812709900000     0.675554250000     0.721295200000     0.023315   
C57      C      0.876273125000     0.647435175000     0.699577930000     0.032294   
C58      C      0.785996170000     0.665609240000     0.714829610000     0.06533    
C59      C      0.904752165000     0.656272920000     0.700610830000     0.059507   
C60      C      0.766325200000     0.682888940000     0.710377470000     0.115201   
C61      C      0.924289735000     0.638310970000     0.698174800000     0.130537   
C62      C      0.835633800000     0.659672825000     0.719777120000     0.21846    
C63      C      0.855068625000     0.664788440000     0.703174300000     0.214769   
C64      C      0.964728000000     0.538948765000     0.905273200000     0.05362    
C65      C      0.972974400000     0.533389220000     0.999635250000    -0.020517   
C66      C      0.945214150000     0.521722905000     0.894464950000    -0.082429   
C67      C      0.992496300000     0.550608365000     0.510442255000     0.005809   
C68      C      0.927537235000     0.503498600000     0.907125800000     0.048605   
C69      C      0.510184465000     0.568822125000     0.997784100000    -0.510516   
C70      C      0.982295200000     0.557458765000     0.892314285000    -0.05909    
C71      C      0.955392630000     0.514889665000     0.512596490000    -0.006858   
C72      C      0.958787470000     0.541199125000     0.788237150000    -0.221871   
C73      C      0.978834150000     0.531122150000     0.616674780000    -0.154219   
C74      C      0.951008975000     0.517259205000     0.965387100000     0.002462   
C75      C      0.986699100000     0.555073455000     0.939525100000     0.004479   
C76      C      0.988887250000     0.553569740000     0.963180900000    -0.00802    
C77      C      0.948826135000     0.518757810000     0.941725670000     0.015397   
C78      C      0.970962735000     0.534731820000     0.975954100000    -0.007968   
C79      C      0.966745150000     0.537600950000     0.928953450000    -0.022192   
C80      C      0.933899820000     0.998771220000     0.978984265000    -0.010648   
C81      C      0.503798365000     0.573571240000     0.925925000000    -0.018256   
C82      C      0.936094880000     0.997671900000     0.502092240000    -0.019558   
C83      C      0.501592575000     0.574678750000     0.902818700000    -0.010528   
C84      C      0.957867350000     0.541191945000     0.763663850000     0.379998   
C85      C      0.979734250000     0.531106245000     0.641253590000     0.273018   
C86      C      0.929195750000     0.502041585000     0.930268250000    -0.013796   
C87      C      0.508526265000     0.570276930000     0.974641470000     0.190823   
C88      C      0.943982250000     0.523013740000     0.871057300000     0.200989   
C89      C      0.993722020000     0.549321150000     0.533855440000     0.035143   
C90      C      0.980235500000     0.558210915000     0.868958550000     0.197565   
C91      C      0.957437425000     0.514150200000     0.535954715000     0.077911   
C92      C      0.982715900000     0.533069215000     0.822267620000    -0.050789   
C93      C      0.955023800000     0.539443055000     0.582623960000    -0.207304   
C94      C      0.981948465000     0.533007450000     0.798990900000     0.176753   
C95      C      0.955767630000     0.539487825000     0.605902255000     0.390911   
C96      C      0.936570315000     0.549491395000     0.801300300000     0.43766    
C97      C      0.500980855000     0.522684890000     0.603624820000     0.277471   
C98      C      0.937605450000     0.549515115000     0.824576900000    -0.232285   
C99      C      0.999970550000     0.522685605000     0.580346880000     0.079798   
C100     C      0.960609080000     0.541295710000     0.835023375000     0.188958   
C101     C      0.977060700000     0.531069230000     0.569885790000     0.124366   
C102     C      0.983620750000     0.960374650000     0.715322865000     0.304404   
C103     C      0.704429910000     0.861799180000     0.689938875000     0.455678   
C104     C      0.676341800000     0.871054700000     0.692517490000    -0.227026   
C105     C      0.511787405000     0.951100550000     0.713191900000     0.754792   
C106     C      0.671410150000     0.894656420000     0.682148860000     0.300336   
C107     C      0.516145300000     0.926964430000     0.722906635000    -0.268325   
C108     C      0.645430190000     0.903803050000     0.684389280000     0.223257   
C109     C      0.542202735000     0.917917670000     0.721347230000     0.456655   
C110     C      0.623645575000     0.889837000000     0.697130920000    -0.100129   
C111     C      0.564745420000     0.932501550000     0.709979550000    -0.206333   
C112     C      0.627930300000     0.865899175000     0.707657200000     0.091044   
C113     C      0.561038385000     0.956909120000     0.700043230000     0.236787   
C114     C      0.654419150000     0.856525050000     0.705281550000     0.179045   
C115     C      0.534432920000     0.966196950000     0.701713980000    -0.072922   
C116     C      0.596079485000     0.900275700000     0.698532100000     0.118728   
C117     C      0.592322440000     0.922401650000     0.709698885000     0.193679   
C118     C      0.770059735000     0.841257720000     0.722274170000     0.390611   
C119     C      0.792598550000     0.862941700000     0.716221290000    -0.072563   
C120     C      0.811397970000     0.880984150000     0.711191100000     0.092732   
C121     C      0.833999700000     0.902420750000     0.705208035000     0.010909   
C122     C      0.853084900000     0.920377880000     0.700197740000     0.034858   
C123     C      0.875769735000     0.941777750000     0.694232480000     0.045956   
C124     C      0.894731800000     0.959702700000     0.689203040000     0.002187   
C125     C      0.917713435000     0.981008680000     0.683185680000     0.161537   
C126     C      0.741483165000     0.803696500000     0.581667900000    -0.294432   
C127     C      0.691912560000     0.789663500000     0.583350060000    -0.295428   
C128     C      0.702545615000     0.788982630000     0.822581450000    -0.294214   
C129     C      0.740713910000     0.762417525000     0.824235100000    -0.293542   
C130     C      0.741153225000     0.805639050000     0.604962585000     0.48988    
C131     C      0.691352000000     0.791499465000     0.606655955000     0.492614   
C132     C      0.702917650000     0.787173700000     0.799275700000     0.49517    
C133     C      0.741234735000     0.760456150000     0.800939680000     0.495927   
C134     C      0.716025500000     0.799535150000     0.617737235000    -0.349364   
C135     C      0.722300530000     0.772847250000     0.788179900000    -0.34263    
C136     C      0.716918675000     0.795736430000     0.570828260000     0.279355   
C137     C      0.721407415000     0.776645950000     0.835088900000     0.281214   
C138     C      0.715556530000     0.801529800000     0.642367660000     0.380521   
C139     C      0.722769530000     0.770852625000     0.763549500000     0.390221   
C140     C      0.724909200000     0.810875050000     0.962884550000     0.008756   
C141     C      0.712964920000     0.763429375000     0.966767000000     0.00147    
C142     C      0.712097080000     0.761696575000     0.943032950000     0.031332   
C143     C      0.726680890000     0.808763830000     0.939149700000     0.029108   
C144     C      0.718713610000     0.788102700000     0.976562380000     0.006182   
C145     C      0.719612465000     0.784279750000     0.929354750000    -0.028241   
C146     C      0.728904890000     0.835090725000     0.973520450000    -0.041314   
C147     C      0.708487185000     0.741237415000     0.981163300000    -0.027827   
C148     C      0.703715665000     0.738100840000     0.932394300000    -0.054382   
C149     C      0.735539125000     0.830331685000     0.924747250000    -0.052852   
C150     C      0.728011175000     0.836761325000     0.996768100000     0.009974   
C151     C      0.708507360000     0.743335400000     0.504366575000    -0.010959   
C152     C      0.703853160000     0.736547470000     0.909150870000     0.019368   
C153     C      0.736285925000     0.828124075000     0.901548350000     0.019105   
C154     C      0.722988350000     0.814407900000     0.510333540000    -0.060042   
C155     C      0.713080250000     0.767575650000     0.514144005000    -0.054824   
C156     C      0.712222650000     0.758420700000     0.895579815000    -0.072152   
C157     C      0.728357910000     0.804364450000     0.891767250000    -0.071711   
C158     C      0.718265325000     0.790026750000     0.500329495000     0.045178   
C159     C      0.720060720000     0.782355650000     0.905587585000     0.068247   
C160     C      0.722338850000     0.815888375000     0.533828080000     0.193861   
C161     C      0.712836340000     0.769894780000     0.537567675000     0.192178   
C162     C      0.712710400000     0.756968080000     0.872089650000     0.199559   
C163     C      0.728766575000     0.802013665000     0.868348865000     0.19952    
N164     N      0.808120130000     0.746454800000     0.723182710000    -0.024262   
N165     N      0.876712085000     0.577537250000     0.686569660000    -0.022003   
N166     N      0.953187375000     0.646331070000     0.701508375000    -0.022715   
N167     N      0.738997040000     0.673123630000     0.703454550000    -0.012048   
N168     N      0.779798650000     0.638464435000     0.710639500000    -0.008878   
N169     N      0.913805050000     0.683014850000     0.704935950000    -0.000851   
N170     N      0.961460450000     0.540984690000     0.858900400000    -0.182204   
N171     N      0.976221550000     0.531371190000     0.546011450000    -0.131866   
N172     N      0.717378900000     0.793796780000     0.546883760000    -0.195513   
N173     N      0.720947160000     0.778585670000     0.859033350000    -0.197379   
O174     O      0.502625195000     0.582013255000     0.707454800000    -3.63849    
O175     O      0.666971900000     0.751529400000     0.715345190000    -0.589189   
O176     O      0.696544990000     0.722508535000     0.715351120000    -0.317276   
O177     O      0.509093870000     0.587187670000     0.671368120000    -1.68198    
O178     O      0.718087910000     0.785796350000     0.703138290000    -0.945876   
O179     O      0.968827850000     0.535586225000     0.702344580000    -0.726539   
O180     O      0.730136260000     0.723795250000     0.720029565000    -0.241079   
O181     O      0.957636685000     0.596564730000     0.684498190000    -0.402247   
O182     O      0.759471775000     0.747911320000     0.695877730000    -0.50411    
O183     O      0.928301200000     0.572448665000     0.708650010000    -0.930962   
O184     O      0.832915600000     0.757011920000     0.716783300000    -0.07075    
O185     O      0.792740500000     0.759212850000     0.736371575000    -0.096786   
O186     O      0.852053000000     0.567284865000     0.693655120000    -0.057982   
O187     O      0.890731065000     0.565048775000     0.672098130000    -0.064123   
O188     O      0.961252800000     0.653362250000     0.721298700000    -0.073873   
O189     O      0.970712500000     0.649786325000     0.684305370000    -0.071687   
O190     O      0.728695035000     0.682807535000     0.685685485000    -0.092596   
O191     O      0.724647460000     0.653988900000     0.714536920000    -0.050765   
O192     O      0.770476280000     0.630880860000     0.691349670000    -0.056855   
O193     O      0.782803150000     0.621264810000     0.726273800000    -0.027436   
O194     O      0.901601600000     0.695111550000     0.720793860000    -0.050238   
O195     O      0.934918150000     0.695168910000     0.693489800000    -0.049305   
O196     O      0.975019870000     0.528429155000     0.752244000000    -0.386794   
O197     O      0.962577550000     0.543865325000     0.652673840000    -0.328563   
O198     O      0.940024150000     0.554116090000     0.753874900000    -0.271935   
O199     O      0.997573300000     0.518178390000     0.651042880000    -0.253515   
O200     O      0.925748400000     0.506267595000     0.860451430000    -0.171222   
O201     O      0.511971355000     0.566050170000     0.544458570000    -0.157439   
O202     O      0.940835985000     0.996403450000     0.548569200000    -0.100608   
O203     O      0.996814350000     0.575982980000     0.856348150000    -0.164094   
O204     O      0.962262650000     0.942526100000     0.719549050000    -0.119282   
O205     O      0.725750550000     0.879650980000     0.685623100000    -0.165819   
O206     O      0.982297000000     0.985595400000     0.713301835000    -0.460589   
O207     O      0.705716225000     0.836581650000     0.691870330000    -0.6514     
O208     O      0.529770540000     0.989609250000     0.691810950000    -0.153231   
O209     O      0.659745170000     0.833629670000     0.715757280000    -0.356499   
O210     O      0.613148000000     0.936597170000     0.721127525000    -0.240849   
O211     O      0.573783420000     0.887545700000     0.687785350000    -0.226505   
O212     O      0.607150965000     0.851367175000     0.720532120000    -0.259126   
O213     O      0.582532885000     0.972015680000     0.688424550000    -0.263277   
O214     O      0.760340200000     0.825204730000     0.707746600000    -0.720137   
O215     O      0.943400850000     0.977296300000     0.684651985000    -0.109257   
O216     O      0.912574470000     0.503443600000     0.676282065000    -0.324306   
O217     O      0.759308575000     0.837936520000     0.742200480000    -0.325911   
O218     O      0.735594170000     0.815256800000     0.651813985000    -0.285937   
O219     O      0.695111550000     0.789535100000     0.654313150000    -0.417705   
O220     O      0.711265730000     0.787427650000     0.751613020000    -0.443134   
O221     O      0.734680700000     0.752545300000     0.754094100000    -0.27579    
O222     O      0.726435735000     0.839199250000     0.543585720000    -0.168959   
O223     O      0.708298830000     0.748458280000     0.550956545000    -0.177757   
O224     O      0.704831870000     0.734190900000     0.862333715000    -0.17222    
O225     O      0.737085750000     0.822916400000     0.854958265000    -0.171189   
F226     F      0.854702300000     0.685458000000     0.688774185000    -0.397013   
F227     F      0.836258620000     0.639218660000     0.734338120000    -0.387382   
F228     F      0.913666425000     0.557210380000     0.791730435000    -0.426227   
F229     F      0.523792625000     0.514788435000     0.613203585000    -0.397725   
F230     F      0.933758020000     0.547388690000     0.617745640000    -0.430243   
F231     F      0.504027365000     0.525258355000     0.787130175000    -0.29682    
F232     F      0.691590665000     0.908793550000     0.669241815000    -0.371696   
F233     F      0.995333950000     0.912192650000     0.734643350000    -0.662241   
F234     F      0.545656110000     0.894895600000     0.731526060000    -0.42733    
F235     F      0.641371150000     0.926444650000     0.673841910000    -0.374871   
F236     F      0.765509515000     0.813023985000     0.614925085000    -0.453126   
F237     F      0.666589080000     0.785852750000     0.618216275000    -0.454966   
F238     F      0.683978615000     0.799056085000     0.787730000000    -0.453238   
F239     F      0.760586680000     0.746826140000     0.790963150000    -0.43852    


