data_I
_chemical_name_common  'nh3_target_5.00/cif/sample_3'
_cell_length_a  8.47311
_cell_length_b  9.42723
_cell_length_c 14.34924
_cell_angle_alpha 88.49637
_cell_angle_beta  88.89297
_cell_angle_gamma 78.70042
_space_group_name_H-M_alt      'P 1'


loop_
_space_group_symop_operation_xyz
  'x, y, z' 

loop_
_atom_site_label
_atom_site_fract_x
_atom_site_fract_y
_atom_site_fract_z
_atom_site_type_symbol
H0    0.8605163 0.6780357 0.10904884     H
H1    0.5293522 0.50407714 0.3403179     H
H2    0.6516965 0.50220984 0.07392366     H
H3    0.73818684 0.67990094 0.37544936     H
H4    0.44821596 0.7242435 0.16503242     H
H5    0.94165397 0.45786893 0.28434172     H
C6    0.67013896 0.54398406 0.14369436     C
C7    0.7197444 0.6381267 0.3056787     C
C8    0.7971227 0.6324494 0.16692905     C
C9    0.59276056 0.5496614 0.282444     C
C10   0.5543044 0.6591539 0.19885987     C
C11   0.8355789 0.52295697 0.25051317     C
N12   0.6826931 0.73713464 0.2225932     N
N13   0.7071902 0.44497615 0.22677988     N
Zn14  0.6310529 0.25297308 0.22336844    Zn
Zn15  0.75157726 0.93288696 0.22634919    Zn
H16   0.0886926 0.22923195 0.4615581     H
H17   0.027867237 0.803247 0.41631463     H
C18   0.38139492 0.14456755 0.23737192     C
C19   0.15522687 0.032205254 0.2671008     C
C20   0.99764305 0.033311956 0.22953175     C
C21   0.21065012 0.15605476 0.25963792     C
S22   0.114614435 0.31520888 0.32200122     S
S23   0.21046683 0.91982013 0.36666656     S
O24   0.47454885 0.015500036 0.2277656     O
O25   0.9346561 0.35465208 0.31988913     O
O26   0.16305079 0.2893427 0.4351139     O
O27   0.29547438 0.7737303 0.3362985     O
O28   0.32015213 0.983681 0.42719102     O
O29   0.047119465 0.9007895 0.43015695     O
O30   0.90758216 0.16144153 0.22179931     O
O31   0.43329442 0.26622272 0.23410137     O
O32   0.9488365 0.9107188 0.21546358     O
O33   0.17567319 0.4433178 0.28176624     O
C34   0.6688669 0.14085254 0.39582726     C
C35   0.7042332 0.060917955 0.95127845     C
C36   0.7114079 0.043318443 0.052540064     C
C37   0.67706656 0.122982174 0.4970822     C
C38   0.68299484 0.110337384 0.5818611     C
C39   0.68905467 0.09709108 0.6817088     C
C40   0.6937609 0.08631172 0.7665939     C
C41   0.6992175 0.07326408 0.86646456     C
O42   0.6093398 0.26997653 0.36047706     O
O43   0.7218642 0.027946267 0.3432628     O
O44   0.65904236 0.15637879 0.10509324     O
O45   0.77156687 0.9143484 0.08787882     O
loop_
_geom_bond_atom_site_label_1
_geom_bond_atom_site_label_2
_geom_bond_distance
_geom_bond_site_symmetry_2
_ccdc_geom_bond_type
H0    C8     1.10340       .     S
H1    C9     1.10339       .     S
H2    C6     1.11026       .     S
H3    C7     1.11026       .     S
H4    C10    1.09783       .     S
H5    C11    1.09775       .     S
C6    H2     1.11026       .     S
C6    C8     1.53116       .     S
C6    C10    1.53825       .     S
C6    N13    1.49410       .     S
C7    H3     1.11026       .     S
C7    C9     1.53116       .     S
C7    C11    1.53825       .     S
C7    N12    1.49410       .     S
C8    H0     1.10340       .     S
C8    C6     1.53116       .     S
C8    C11    1.55835       .     S
C8    N12    1.47935       .     S
C9    H1     1.10339       .     S
C9    C7     1.53116       .     S
C9    C10    1.55835       .     S
C9    N13    1.47935       .     S
C10   H4     1.09783       .     S
C10   C6     1.53825       .     S
C10   C9     1.55835       .     S
C10   N12    1.47671       .     S
C11   H5     1.09775       .     S
C11   C7     1.53825       .     S
C11   C8     1.55835       .     S
C11   N13    1.47671       .     S
N12   C7     1.49410       .     S
N12   C8     1.47935       .     S
N12   C10    1.47671       .     S
N12   Zn15   2.04392       .     S
N13   C6     1.49410       .     S
N13   C9     1.47935       .     S
N13   C11    1.47671       .     S
N13   Zn14   2.03920       .     S
Zn14  N13    2.03920       .     S
Zn14  Zn15   2.98956   1_545     S
Zn14  O30    2.33275       .     S
Zn14  O31    1.66014       .     S
Zn14  O42    1.98021       .     S
Zn14  O44    1.93565       .     S
Zn15  N12    2.04392       .     S
Zn15  Zn14   2.98956   1_565     S
Zn15  O24    2.32365   1_565     S
Zn15  O32    1.64815       .     S
Zn15  O43    1.91182   1_565     S
Zn15  O45    2.00020       .     S
H16   O26    0.99068       .     S
H17   O29    0.99059       .     D
C18   C21    1.45925       .     S
C18   O24    1.32315       .     D
C18   O31    1.30572       .     S
C19   C20    1.44762   1_455     S
C19   C21    1.34222       .     S
C19   S23    1.77054   1_545     S
C20   C19    1.44762   1_655     S
C20   O30    1.29950       .     S
C20   O32    1.32295   1_545     S
C21   C18    1.45925       .     S
C21   C19    1.34222       .     S
C21   S22    1.81051       .     S
S22   C21    1.81051       .     S
S22   O25    1.49774   1_455     S
S22   O26    1.68168       .     S
S22   O33    1.50209       .     S
S23   C19    1.77054   1_565     D
S23   O27    1.49534       .     S
S23   O28    1.50277       .     D
S23   O29    1.67863       .     S
O24   Zn15   2.32365   1_545     D
O24   C18    1.32315       .     S
O25   S22    1.49774   1_655     S
O26   H16    0.99068       .     T
O26   S22    1.68168       .     S
O27   S23    1.49534       .     T
O28   S23    1.50277       .     S
O29   H17    0.99059       .     T
O29   S23    1.67863       .     S
O30   Zn14   2.33275       .     D
O30   C20    1.29950       .     S
O31   Zn14   1.66014       .     D
O31   C18    1.30572       .     S
O32   Zn15   1.64815       .     S
O32   C20    1.32295   1_565     T
O33   S22    1.50209       .     S
C34   C37    1.45969       .     T
C34   O42    1.31543       .     S
C34   O43    1.32107       .     T
C35   C36    1.45922   1_556     S
C35   C41    1.22029       .     D
C36   C35    1.45922   1_554     S
C36   O44    1.32117       .     S
C36   O45    1.31528   1_545     S
C37   C34    1.45969       .     S
C37   C38    1.22026       .     S
C38   C37    1.22026       .     S
C38   C39    1.43594       .     S
C39   C38    1.43594       .     S
C39   C40    1.22038       .     S
C40   C39    1.22038       .     S
C40   C41    1.43598       .     S
C41   C35    1.22029       .     S
C41   C40    1.43598       .     S
O42   Zn14   1.98021       .     S
O42   C34    1.31543       .     S
O43   Zn15   1.91182   1_545     S
O43   C34    1.32107       .     S
O44   Zn14   1.93565       .     S
O44   C36    1.32117       .     S
O45   Zn15   2.00020       .     S
O45   C36    1.31528   1_565     S
