# generated using pymatgen
data_Zn4H8C38Cl8O13
_symmetry_space_group_name_H-M   'P 1'
_cell_length_a   14.24996000
_cell_length_b   18.34534000
_cell_length_c   18.62585000
_cell_angle_alpha   88.03455000
_cell_angle_beta   88.78093000
_cell_angle_gamma   90.93830000
_symmetry_Int_Tables_number   1
_chemical_formula_structural   Zn4H8C38Cl8O13
_chemical_formula_sum   'Zn8 H16 C76 Cl16 O26'
_cell_volume   4864.49742016
_cell_formula_units_Z   2
loop_
 _symmetry_equiv_pos_site_id
 _symmetry_equiv_pos_as_xyz
  1  'x, y, z'
loop_
 _atom_site_type_symbol
 _atom_site_label
 _atom_site_symmetry_multiplicity
 _atom_site_fract_x
 _atom_site_fract_y
 _atom_site_fract_z
 _atom_site_occupancy
  Zn  Zn0  1  0.59551650  0.58394010  0.53133500  1
  Zn  Zn1  1  0.69269730  0.68138516  0.40566722  1
  Zn  Zn2  1  0.80216010  0.64701410  0.54936090  1
  Zn  Zn3  1  0.62925744  0.75327265  0.55084310  1
  Zn  Zn4  1  0.64282435  0.12996177  0.10553827  1
  Zn  Zn5  1  0.57268650  0.16875537  0.94831260  1
  Zn  Zn6  1  0.77419000  0.10095347  0.97004810  1
  Zn  Zn7  1  0.73555600  0.26284167  0.01501514  1
  H  H8  1  0.36395710  0.97513115  0.70136863  1
  H  H9  1  0.99436850  0.86844330  0.81888020  1
  H  H10  1  0.45413610  0.99913126  0.58881730  1
  H  H11  1  0.90243980  0.84465116  0.93070640  1
  H  H12  1  0.45350027  0.05828273  0.38073573  1
  H  H13  1  0.90222590  0.78040224  0.12815472  1
  H  H14  1  0.36718887  0.94734540  0.34869298  1
  H  H15  1  0.98697190  0.89180756  0.16106422  1
  H  H16  1  0.96541340  0.45057400  0.88314980  1
  H  H17  1  0.39612544  0.36770900  0.63900167  1
  H  H18  1  0.01535726  0.42240596  0.76017950  1
  H  H19  1  0.34808218  0.39625150  0.76233960  1
  H  H20  1  0.41320094  0.48217788  0.12787768  1
  H  H21  1  0.95418006  0.34688812  0.38848847  1
  H  H22  1  0.36486120  0.48738027  0.25514530  1
  H  H23  1  0.00198591  0.34033330  0.26119864  1
  C  C24  1  0.58188623  0.93415270  0.76209086  1
  C  C25  1  0.77504534  0.90090910  0.75468546  1
  C  C26  1  0.74280494  0.85825646  0.63254964  1
  C  C27  1  0.61463326  0.97395530  0.88596560  1
  C  C28  1  0.63404900  0.92429660  0.82598174  1
  C  C29  1  0.72286720  0.90943974  0.69081116  1
  C  C30  1  0.48288172  0.94460493  0.76257247  1
  C  C31  1  0.87443596  0.89248526  0.75486726  1
  C  C32  1  0.43878700  0.96746800  0.70008826  1
  C  C33  1  0.91890990  0.87351775  0.81862410  1
  C  C34  1  0.48955303  0.97927320  0.63626570  1
  C  C35  1  0.86716400  0.86093915  0.88200533  1
  C  C36  1  0.58508070  0.96476040  0.63312155  1
  C  C37  1  0.77030300  0.86822440  0.88260210  1
  C  C38  1  0.63084970  0.93684570  0.69494920  1
  C  C39  1  0.72547394  0.89673793  0.82123667  1
  C  C40  1  0.94237410  0.67921100  0.50741350  1
  C  C41  1  0.04344824  0.67323750  0.50834170  1
  C  C42  1  0.12815931  0.66820310  0.50910610  1
  C  C43  1  0.22759436  0.66230434  0.50999150  1
  C  C44  1  0.31232753  0.65731960  0.51076130  1
  C  C45  1  0.41343840  0.65152395  0.51169574  1
  C  C46  1  0.63062760  0.97408220  0.29132012  1
  C  C47  1  0.72705810  0.85956454  0.22534147  1
  C  C48  1  0.62634933  0.77656920  0.30288607  1
  C  C49  1  0.73516850  0.05685401  0.21517713  1
  C  C50  1  0.72017384  0.98705477  0.25743786  1
  C  C51  1  0.63843304  0.84608084  0.26019612  1
  C  C52  1  0.58256960  0.02792120  0.33079510  1
  C  C53  1  0.77451500  0.80678890  0.18403060  1
  C  C54  1  0.48878598  0.01706910  0.35095876  1
  C  C55  1  0.86699200  0.81986310  0.16051446  1
  C  C56  1  0.44092935  0.95362550  0.33428475  1
  C  C57  1  0.91455050  0.88318960  0.17833343  1
  C  C58  1  0.48778760  0.89810866  0.30011344  1
  C  C59  1  0.86967590  0.93477250  0.21907242  1
  C  C60  1  0.58511883  0.90566725  0.28301156  1
  C  C61  1  0.77276630  0.92729520  0.23517068  1
  C  C62  1  0.74901250  0.42259893  0.81279814  1
  C  C63  1  0.61311200  0.40451112  0.70591650  1
  C  C64  1  0.72642190  0.47167330  0.62401900  1
  C  C65  1  0.63265780  0.35768570  0.89520150  1
  C  C66  1  0.65313345  0.40823140  0.83230096  1
  C  C67  1  0.70844980  0.42011353  0.68618920  1
  C  C68  1  0.81896080  0.43851790  0.86392707  1
  C  C69  1  0.54313450  0.38650050  0.65545890  1
  C  C70  1  0.91345870  0.43846497  0.84387410  1
  C  C71  1  0.44882390  0.38263068  0.67697950  1
  C  C72  1  0.94129660  0.42426723  0.77399380  1
  C  C73  1  0.42172158  0.39787167  0.74687576  1
  C  C74  1  0.87440443  0.41344664  0.72187173  1
  C  C75  1  0.48885307  0.41616290  0.79644890  1
  C  C76  1  0.77732885  0.41786820  0.73968510  1
  C  C77  1  0.58513033  0.41086760  0.77862230  1
  C  C78  1  0.68950695  0.31746572  0.14513013  1
  C  C79  1  0.67742360  0.51092940  0.37118530  1
  C  C80  1  0.86518866  0.36669168  0.22159696  1
  C  C81  1  0.50179154  0.46142290  0.29476076  1
  C  C82  1  0.81595140  0.38642251  0.36583957  1
  C  C83  1  0.55124050  0.44220036  0.15049876  1
  C  C84  1  0.93082404  0.35510263  0.27523330  1
  C  C85  1  0.43615177  0.47297220  0.24112347  1
  C  C86  1  0.90470225  0.36102614  0.34715600  1
  C  C87  1  0.46252210  0.46766365  0.16919635  1
  C  C88  1  0.75215990  0.40627703  0.31123558  1
  C  C89  1  0.61491170  0.42213598  0.20510915  1
  C  C90  1  0.77146757  0.38457403  0.24055313  1
  C  C91  1  0.59555310  0.44374076  0.27579218  1
  C  C92  1  0.67041880  0.44704062  0.32441520  1
  C  C93  1  0.69659660  0.38133413  0.19191943  1
  C  C94  1  0.04735208  0.16089562  0.01171452  1
  C  C95  1  0.31540370  0.16989355  0.00427167  1
  C  C96  1  0.94712377  0.15758654  0.01458809  1
  C  C97  1  0.41559318  0.17320135  0.00139922  1
  C  C98  1  0.13213691  0.16373387  0.00935298  1
  C  C99  1  0.23063865  0.16704722  0.00663760  1
  Cl  Cl100  1  0.40745220  0.92513730  0.83766530  1
  Cl  Cl101  1  0.94903610  0.91137695  0.67925420  1
  Cl  Cl102  1  0.64686424  0.98899347  0.55234930  1
  Cl  Cl103  1  0.70470120  0.83412860  0.95805510  1
  Cl  Cl104  1  0.63616115  0.10816324  0.36198336  1
  Cl  Cl105  1  0.72047687  0.72638065  0.15379123  1
  Cl  Cl106  1  0.41979992  0.82275720  0.27339152  1
  Cl  Cl107  1  0.93777704  0.00451422  0.25617772  1
  Cl  Cl108  1  0.79443794  0.46449193  0.95286640  1
  Cl  Cl109  1  0.56844260  0.36135927  0.56643975  1
  Cl  Cl110  1  0.91504360  0.38747080  0.63636017  1
  Cl  Cl111  1  0.45152113  0.45314062  0.87811110  1
  Cl  Cl112  1  0.90753090  0.37044838  0.13171075  1
  Cl  Cl113  1  0.45951128  0.45753880  0.38464367  1
  Cl  Cl114  1  0.78241380  0.38053355  0.45771897  1
  Cl  Cl115  1  0.58490485  0.44815360  0.05867484  1
  O  O116  1  0.67990740  0.66640650  0.50930387  1
  O  O117  1  0.68079940  0.84708140  0.58434600  1
  O  O118  1  0.67654794  0.98476980  0.93476210  1
  O  O119  1  0.81109685  0.81549970  0.64177060  1
  O  O120  1  0.54625070  0.01635146  0.87733746  1
  O  O121  1  0.89425040  0.67363550  0.56676910  1
  O  O122  1  0.90102786  0.69030470  0.44727144  1
  O  O123  1  0.45081156  0.58715550  0.50558704  1
  O  O124  1  0.46439397  0.71089970  0.51862806  1
  O  O125  1  0.56213814  0.77063380  0.35286736  1
  O  O126  1  0.80015576  0.06308877  0.16535237  1
  O  O127  1  0.69307320  0.73164490  0.29923020  1
  O  O128  1  0.66922075  0.10207772  0.21898954  1
  O  O129  1  0.80635880  0.50571730  0.61705405  1
  O  O130  1  0.55210630  0.32390790  0.90258160  1
  O  O131  1  0.65525430  0.49227947  0.58924216  1
  O  O132  1  0.70321083  0.33734572  0.93039346  1
  O  O133  1  0.75427663  0.26936330  0.14574468  1
  O  O134  1  0.61263500  0.55903630  0.37056646  1
  O  O135  1  0.75477093  0.52492005  0.40283102  1
  O  O136  1  0.61214070  0.30347964  0.11348008  1
  O  O137  1  0.90240150  0.12728813  0.96473990  1
  O  O138  1  0.90259900  0.18494572  0.06700797  1
  O  O139  1  0.46009900  0.14584702  0.94901010  1
  O  O140  1  0.46029633  0.20347615  0.05122760  1
  O  O141  1  0.68131790  0.16563137  0.00972819  1
