data_I
_chemical_name_common  'results/nh3_target_22mmol_v2/cif/sample_19'
_cell_length_a 25.42134
_cell_length_b 25.75282
_cell_length_c 32.78216
_cell_angle_alpha 91.21537
_cell_angle_beta  92.87780
_cell_angle_gamma 85.07154
_space_group_name_H-M_alt      'P 1'


loop_
_space_group_symop_operation_xyz
  'x, y, z' 

loop_
_atom_site_label
_atom_site_fract_x
_atom_site_fract_y
_atom_site_fract_z
_atom_site_type_symbol
Zn0   0.3476367 0.5954872 0.6821614    Zn
Zn1   0.38299084 0.5648829 0.76476324    Zn
H2    0.16586846 0.7334606 0.5231005     H
H3    0.27357042 0.7534028 0.57197446     H
H4    0.19773445 0.8045543 0.59418535     H
H5    0.24169546 0.6823052 0.50088906     H
C6    0.26731545 0.69889957 0.5242229     C
C7    0.17212342 0.78796387 0.5708521     C
C8    0.24804401 0.7360808 0.5487962     C
C9    0.19138905 0.75078624 0.54627216     C
C10   0.12250186 0.81758744 0.56138706     C
C11   0.31693676 0.66927725 0.5336916     C
O12   0.10723415 0.84842676 0.58987415     O
O13   0.3322037 0.63843423 0.5052029     O
O14   0.106515214 0.8226112 0.5234945     O
O15   0.33292264 0.6642497 0.57158256     O
H16   0.30956545 0.70164865 0.347589     H
H17   0.30492285 0.6987418 0.27874586     H
H18   0.2602439 0.9373763 0.36235932     H
H19   0.22291727 0.9073152 0.3997477     H
H20   0.28684932 0.929482 0.4140508     H
H21   0.2920046 0.83281225 0.40506512     H
H22   0.3309332 0.862777 0.36933154     H
H23   0.25934324 0.8585184 0.3152704     H
H24   0.2177214 0.8302453 0.34861442     H
H25   0.33689746 0.81101835 0.28653783     H
C26   0.28610185 0.7794062 0.33113134     C
C27   0.2841022 0.7365832 0.35411972     C
C28   0.31951377 0.77606034 0.29535252     C
C29   0.32599908 0.73243016 0.27250803     C
C30   0.35684106 0.72995263 0.2361523     C
C31   0.25434062 0.73456824 0.39094535     C
C32   0.25978702 0.83266073 0.34207502     C
C33   0.28987518 0.8579928 0.37789157     C
C34   0.26315314 0.9113481 0.3891156     C
O35   0.27587497 0.70655864 0.42071557     O
O36   0.2075709 0.7589336 0.39263108     O
O37   0.38966793 0.7645708 0.23054597     O
O38   0.34877405 0.69354165 0.20957538     O
Zn39  0.4058832 0.63220763 0.23601633    Zn
Zn40  0.4514451 0.581549 0.16052301    Zn
H41   0.7205202 0.3496709 0.83912563     H
H42   0.7818455 0.3619443 0.9436841     H
H43   0.8235507 0.37045074 0.88754934     H
H44   0.654401 0.40248817 0.8673649     H
C45   0.7979213 0.3553516 0.86351055     C
C46   0.74089557 0.37691528 0.93885326     C
C47   0.7177261 0.38269928 0.9010884     C
C48   0.745267 0.36257777 0.8647126     C
C49   0.7101505 0.38715065 0.9749067     C
C50   0.8220911 0.32254878 0.8315998     C
O51   0.8717628 0.31045485 0.83467966     O
O52   0.7924889 0.30370936 0.80373526     O
O53   0.73684835 0.38767722 0.010096908     O
O54   0.6657919 0.36550125 0.9731632     O
O55   0.6652593 0.4018183 0.8968325     O
Zn56  0.9940858 0.15956594 0.73966664    Zn
Zn57  0.89401174 0.20692529 0.7022197    Zn
Zn58  0.16298127 0.8153947 0.4463339    Zn
Zn59  0.16438213 0.93054813 0.43858582    Zn
Zn60  0.87365824 0.13329466 0.24431612    Zn
Zn61  0.9528259 0.12518652 0.17878519    Zn
Zn62  0.643719 0.38049164 0.9632857    Zn
Zn63  0.63190687 0.43019778 0.046623077    Zn
H64   0.6873236 0.021931648 0.27243656     H
H65   0.62402886 0.66366285 0.13578707     H
H66   0.7663046 0.87592614 0.18889163     H
H67   0.54459167 0.8078666 0.22015628     H
H68   0.70547664 0.94679195 0.32726195     H
H69   0.707599 0.8800138 0.30854392     H
H70   0.63215643 0.86292267 0.34544787     H
H71   0.67199343 0.8999331 0.3798383     H
H72   0.6136048 0.93148655 0.35451367     H
H73   0.7279701 0.6781204 0.18603799     H
H74   0.7070555 0.73285276 0.21752852     H
H75   0.7731054 0.78180516 0.19950604     H
H76   0.8058778 0.7166164 0.19342291     H
H77   0.77939165 0.7522273 0.14947423     H
H78   0.85403997 0.8715417 0.23999816     H
H79   0.82685167 0.917565 0.27701238     H
H80   0.9343372 0.9232149 0.23933388     H
H81   0.9048596 0.96642196 0.27787563     H
H82   0.9228322 0.8988351 0.28883895     H
H83   0.5374507 0.7219995 0.2704826     H
H84   0.5104288 0.66296214 0.251135     H
H85   0.4188643 0.7081794 0.26594728     H
H86   0.46248913 0.6921475 0.31001154     H
H87   0.45232138 0.75810266 0.29253498     H
C88   0.5258778 0.64323986 0.15950964     C
C89   0.7814212 0.04471326 0.24322882     C
C90   0.6813779 0.9432124 0.25110996     C
C91   0.6353885 0.73706585 0.16593635     C
C92   0.7046917 0.9909423 0.25353652     C
C93   0.60616493 0.6943561 0.1549589     C
C94   0.75363684 0.9957505 0.2366219     C
C95   0.5557488 0.69019574 0.17000414     C
C96   0.778182 0.95067453 0.21747597     C
C97   0.535195 0.7312515 0.19600753     C
C98   0.7484278 0.90819246 0.20654139     C
C99   0.56244045 0.7760873 0.20277636     C
C100  0.6989024 0.90457004 0.22264811     C
C101  0.613038 0.7790823 0.18921098     C
C102  0.6684316 0.8601404 0.21177523     C
C103  0.6430041 0.8235317 0.20150761     C
C104  0.68085456 0.9152031 0.3159383     C
C105  0.6473187 0.9016829 0.3508884     C
C106  0.7212267 0.72115743 0.18667091     C
C107  0.7731145 0.74445707 0.18200594     C
C108  0.85202765 0.91289777 0.24991584     C
C109  0.9069817 0.9263127 0.26467395     C
C110  0.5022396 0.7059083 0.25476623     C
C111  0.4561528 0.71671957 0.2824835     C
O112  0.47658843 0.64573884 0.17195164     O
O113  0.82969755 0.043180943 0.22892803     O
O114  0.5506541 0.60365176 0.13851257     O
O115  0.7556319 0.0852679 0.26236713     O
O116  0.6484306 0.93148744 0.28118527     O
O117  0.6862048 0.7374198 0.15368919     O
O118  0.8326709 0.9442769 0.21636775     O
O119  0.48903465 0.7282353 0.21607089     O
H120  0.484843 0.44799536 0.051057253     H
H121  0.54024184 0.47728875 0.15025398     H
H122  0.43653113 0.5090096 0.1008101     H
H123  0.65575284 0.5480256 0.10615496     H
C124  0.5553373 0.48385563 0.064677365     C
C125  0.5007323 0.49601504 0.14406925     C
C126  0.4770517 0.49306083 0.10696573     C
C127  0.50610954 0.4722714 0.072398916     C
C128  0.47851884 0.53243446 0.17414816     C
C129  0.57653075 0.45986825 0.028072042     C
C130  0.5849152 0.5240952 0.08715859     C
O131  0.6262128 0.4442834 0.029342275     O
O132  0.55412054 0.47868192 0.9951396     O
O133  0.50603104 0.5405511 0.20684746     O
O134  0.43562618 0.5593128 0.1647245     O
O135  0.5613479 0.56355476 0.100867465     O
O136  0.6401197 0.5178917 0.09084944     O
H137  0.070657276 0.37414277 0.78243715     H
H138  0.22735357 0.46633154 0.72090894     H
H139  0.9669484 0.2831132 0.8538824     H
H140  0.3288343 0.5660016 0.65522903     H
H141  0.24416575 0.20321038 0.7989532     H
H142  0.21224377 0.19941151 0.8455028     H
H143  0.1877064 0.16677542 0.799812     H
H144  0.07754956 0.46234968 0.5749278     H
H145  0.10109766 0.5248772 0.5719333     H
H146  0.1380943 0.4681551 0.5508572     H
H147  0.2644871 0.28001174 0.7721689     H
H148  0.23075779 0.24142933 0.73366445     H
H149  0.23319824 0.30976176 0.7276743     H
H150  0.05222916 0.42758888 0.63386625     H
H151  0.09828091 0.3816501 0.60814345     H
H152  0.08764097 0.37536532 0.66103405     H
C153  0.20158118 0.54536605 0.5957659     C
C154  0.105813645 0.22006956 0.8516071     C
C155  0.14344199 0.3314923 0.76738274     C
C156  0.1648029 0.43734774 0.6830504     C
C157  0.15134221 0.3690069 0.7379699     C
C158  0.1571153 0.40036637 0.712927     C
C159  0.097372346 0.33964437 0.78843945     C
C160  0.20487346 0.46975535 0.69189525     C
C161  0.08389853 0.30303735 0.81554866     C
C162  0.21812549 0.50466794 0.6633398     C
C163  0.11857695 0.2578065 0.8221584     C
C164  0.18917635 0.507684 0.6254063     C
C165  0.16700044 0.24999557 0.80213165     C
C166  0.14650984 0.47635657 0.61661184     C
C167  0.17926012 0.28721127 0.7737735     C
C168  0.13468154 0.43993503 0.6457534     C
C169  0.03226272 0.31250858 0.83497465     C
C170  0.2638237 0.5356456 0.6737235     C
C171  0.20493042 0.20246549 0.81191766     C
C172  0.113975696 0.48301673 0.5765554     C
C173  0.22954543 0.27934638 0.75050807     C
C174  0.09092321 0.4041523 0.63686043     C
O175  0.2023762 0.59330195 0.6065933     O
O176  0.096555136 0.23531052 0.8881238     O
O177  0.2107814 0.5301334 0.5592379     O
O178  0.10497411 0.1721592 0.8407555     O
O179  0.015729286 0.3569486 0.84439045     O
O180  0.0015490515 0.27120197 0.8411276     O
O181  0.27167907 0.5512958 0.70881546     O
O182  0.29902297 0.5453008 0.64398026     O
H183  0.08957048 0.95101947 0.30389133     H
H184  0.0035196333 0.9692664 0.3654563     H
H185  0.14130731 0.9996439 0.34249806     H
H186  0.15322967 0.09084368 0.3364152     H
H187  0.09437232 0.10695791 0.363902     H
H188  0.089212455 0.07814658 0.31332007     H
H189  0.9702104 0.9832634 0.29062092     H
C190  0.024403904 0.9657976 0.2406475     C
C191  0.0106564425 0.9714486 0.2829634     C
C192  0.049536396 0.9640503 0.3117131     C
C193  0.072061144 0.010517716 0.3747589     C
C194  0.0403931 0.97932345 0.35345727     C
C195  0.05519196 0.030467153 0.41407695     C
C196  0.11364293 0.07833791 0.34238523     C
N197  0.119430184 0.02682209 0.35954583     N
O198  0.07349781 0.96894515 0.23316278     O
O199  0.9888254 0.9551722 0.21257347     O
O200  0.09013672 0.044754744 0.4413637     O
O201  0.0054642675 0.03098178 0.4207744     O
H202  0.2849592 0.29799905 0.31043828     H
H203  0.21815056 0.2783978 0.30418348     H
H204  0.26773766 0.2534641 0.26965582     H
H205  0.20810917 0.32165653 0.23671193     H
H206  0.27328295 0.3419254 0.24259113     H
H207  0.24142002 0.38835934 0.31107864     H
H208  0.17811719 0.37442693 0.29597187     H
H209  0.24037023 0.4314174 0.09143423     H
H210  0.24670841 0.4762825 0.13439295     H
H211  0.2990875 0.4263826 0.12495007     H
H212  0.24695767 0.40216613 0.18229553     H
H213  0.24145775 0.35758847 0.13999797     H
H214  0.15249182 0.4010516 0.11842008     H
H215  0.15977477 0.45121172 0.15325662     H
H216  0.37130475 0.41302013 0.3406445     H
H217  0.39644665 0.46958107 0.31931034     H
H218  0.36801577 0.47420204 0.36867836     H
H219  0.30368048 0.51439154 0.3170358     H
H220  0.28038225 0.4576588 0.33709672     H
H221  0.31166756 0.4044392 0.27717474     H
H222  0.33804566 0.4540848 0.25483498     H
H223  0.20673744 0.22033823 0.09002086     H
H224  0.25202876 0.26999417 0.09986765     H
H225  0.2655622 0.20691386 0.12278363     H
H226  0.23074086 0.2759432 0.17219868     H
H227  0.19038114 0.2220438 0.16629203     H
H228  0.1235894 0.27126494 0.12403446     H
H229  0.16578612 0.31864622 0.113596864     H
C230  0.09382273 0.24764414 0.20007308     C
H231  0.34572458 0.5356294 0.26442227     H
H232  0.037717704 0.25823978 0.1477545     H
H233  0.2442545   0.5872 0.16374439     H
H234  0.13785659 0.20141886 0.24826005     H
H235  0.17969477 0.5646204 0.20348766     H
H236  0.06617843 0.30984154 0.26103553     H
H237  0.086322814 0.399665 0.27345353     H
H238  0.110516116 0.5065582 0.20692879     H
C239  0.18925503 0.5276728 0.21834305     C
C240  0.27946675 0.5761304 0.18248123     C
C241  0.10503414 0.20582867 0.22616442     C
C242  0.2838605 0.5405513 0.21480864     C
C243  0.20941995 0.43160343 0.25749236     C
C244  0.14414968 0.3786362 0.18144816     C
C245  0.25144216 0.46403813 0.25395226     C
C246  0.088644855 0.32846117 0.23910941     C
C247  0.13467717 0.32536602 0.17510632     C
C248  0.24163514 0.5105544 0.23022021     C
C249  0.108841084 0.30045485 0.2055808     C
C250  0.2161015 0.38226944 0.28323263     C
C251  0.23820464 0.33379477 0.25943065     C
C252  0.25316963 0.28816077 0.28782982     C
C253  0.14897376 0.49533257 0.2213928     C
C254  0.16990744 0.40889394 0.14939201     C
C255  0.23032735 0.3979318 0.15064466     C
C256  0.25553542 0.43542477 0.12361787     C
C257  0.3052771 0.4471629 0.27434576     C
C258  0.31070918 0.47129008 0.31761867     C
C259  0.36506352 0.45602554 0.3377209     C
C260  0.15513432 0.29374126 0.13834755     C
C261  0.2033871 0.25625652 0.15068041     C
C262  0.2337217 0.23717353 0.11345772     C
C263  0.09843104 0.37994444 0.24549924     C
C264  0.1607141 0.4451869 0.2359698     C
C265  0.12995128 0.4034908 0.21905509     C
C266  0.33210742 0.5467746 0.2341762     C
C267  0.053238407 0.23583822 0.17368798     C
N268  0.03775994 0.1904832 0.18484049     N
N269  0.32339293 0.60205245 0.18299605     N
N270  0.069813795 0.17064698 0.2167205     N
N271  0.35544676 0.5822162 0.21487606     N
H272  0.7612868 0.305214 0.05786286     H
H273  0.71708715 0.3302184 0.14262797     H
H274  0.8119458 0.22048208 0.06896417     H
H275  0.8107296 0.3459439 0.15624076     H
H276  0.809756 0.2843181 0.18071675     H
H277  0.8683954 0.30120352 0.15597126     H
C278  0.86204165 0.19871971 0.12292883     C
C279  0.82486725 0.23376496 0.09925431     C
C280  0.8042893 0.27963668 0.11452618     C
C281  0.7187422 0.32998618 0.109560005     C
C282  0.7605143 0.3069604 0.09101557     C
C283  0.67558336 0.35704318 0.085572496     C
C284  0.82448673 0.30389684 0.15423195     C
O285  0.8591815 0.19969139 0.16218998     O
O286  0.8949574 0.16636845 0.104168475     O
O287  0.6400419 0.38636062 0.104188316     O
O288  0.6758177 0.3530377 0.046166822     O
H289  0.51348805 0.46286836 0.16351049     H
H290  0.5301708 0.55426985 0.10745226     H
H291  0.4876512 0.49400827 0.060109366     H
H292  0.5867357 0.4064271 0.13605544     H
C293  0.5186875 0.46234515 0.063821666     C
C294  0.52303046 0.5331865 0.1347088     C
C295  0.52031195 0.4814333 0.13519493     C
C296  0.53653634 0.44808462 0.101094306     C
C297  0.54571617 0.4446495 0.027767688     C
C298  0.52003866 0.5590917 0.17387837     C
O299  0.5473891 0.5347479 0.20249486     O
O300  0.48061955 0.59315187 0.17935216     O
O301  0.5304421 0.46878242 0.99491334     O
O302  0.586199 0.41120997 0.031242501     O
O303  0.5733785 0.40586346 0.107122     O
C304  0.073090315 0.076374955 0.6262912     C
C305  0.12887001 0.9419248 0.46760157     C
C306  0.10184342 0.038437232 0.5976902     C
C307  0.10615176 0.9853053 0.49486545     C
C308  0.10528688 0.046039376 0.55618507     C
C309  0.13232435 0.0041360753 0.52951217     C
C310  0.19092177 0.9876796 0.5391173     C
C311  0.22029251 0.025727082 0.5669432     C
C312  0.27963066 0.010328199 0.56962734     C
C313  0.08702437 0.09864658 0.53703064     C
C314  0.11562443 0.111782245 0.49882168     C
C315  0.098685764 0.16748339 0.48540974     C
H316  0.06638291 0.0019593143 0.48677438     H
H317  0.11956633 0.002271588 0.6107676     H
H318  0.28776634 0.96991247 0.58089286     H
H319  0.29611468 0.013328578 0.5391466     H
H320  0.29963714 0.03708496 0.5910464     H
H321  0.21365398 0.06592369 0.5551361     H
H322  0.20574324 0.02558864 0.5981316     H
H323  0.19459504 0.94881797 0.55361086     H
H324  0.21154961 0.9847502 0.50992036     H
H325  0.055616368 0.1718616 0.4772921     H
H326  0.10782044 0.19581924 0.510245     H
H327  0.12032026 0.17676774 0.45830515     H
H328  0.15901597 0.10826339 0.50532407     H
H329  0.10633387 0.084678 0.4733159     H
H330  0.043855745 0.099873416 0.52936286     H
H331  0.09487767 0.13016129 0.5596449     H
O332  0.034734905 0.10566641 0.60752565     O
O333  0.1634306 0.9092461 0.48721546     O
O334  0.08630486 0.07686767 0.6668871     O
O335  0.1118606 0.93804485 0.427854     O
H336  0.60914415 0.4433306  0.88307     H
H337  0.53123516 0.46408254 0.9513189     H
H338  0.5404204 0.5132158 0.85166544     H
C339  0.4366204 0.50334454 0.850284     C
C340  0.5723108 0.45558518 0.8972262     C
C341  0.56594825 0.44644946 0.9366025     C
C342  0.52946466 0.48481664 0.8730407     C
C343  0.47840357 0.4751737 0.87531996     C
C344  0.6051743 0.41726655 0.96271634     C
C345  0.4632364 0.43095335 0.8976091     C
O346  0.39539528 0.4792904 0.8414954     O
O347  0.44079897 0.54991454 0.8372424     O
O348  0.6437384 0.38793498 0.94755054     O
O349  0.5999595 0.42301947 0.0014487505     O
loop_
_geom_bond_atom_site_label_1
_geom_bond_atom_site_label_2
_geom_bond_distance
_geom_bond_site_symmetry_2
_ccdc_geom_bond_type
Zn0   Zn1    2.91306       .     S
Zn0   O13    5.91598       .     S
Zn0   O15    4.05448       .     D
Zn0   O198  18.49072       .     S
Zn0   O299  16.76610       .     S
Zn1   Zn0    2.91306       .     S
Zn1   O288  12.59127   1_556     S
Zn1   O301   8.57077       .     S
Zn1   O346   3.36478       .     D
Zn1   O347   2.74674       .     S
H2    C9     1.08760       .     S
H3    C8     1.08779       .     S
H4    C7     1.08418       .     S
H5    C6     1.08437       .     D
C6    H5     1.08437       .     S
C6    C8     1.31609       .     D
C6    C11    1.44046       .     S
C7    H4     1.08418       .     S
C7    C9     1.31611       .     S
C7    C10    1.44046       .     S
C8    H3     1.08779       .     S
C8    C6     1.31609       .     D
C8    C9     1.45610       .     S
C9    H2     1.08760       .     S
C9    C7     1.31611       .     S
C9    C8     1.45610       .     S
C10   C7     1.44046       .     D
C10   O12    1.26707       .     S
C10   O14    1.29308       .     D
C11   C6     1.44046       .     S
C11   O13    1.26716       .     S
C11   O15    1.29303       .     S
O12   C10    1.26707       .     D
O12   Zn56   9.61142   1_465     S
O13   Zn0    5.91598       .     S
O13   C11    1.26716       .     S
O14   C10    1.29308       .     S
O14   Zn59   4.36811       .     D
O15   Zn0    4.05448       .     S
O15   C11    1.29303       .     S
H16   C27    1.08624       .     S
H17   C29    1.08626       .     D
H18   C34    1.11087       .     S
H19   C34    1.11089       .     S
H20   C34    1.10989       .     S
H21   C33    1.10933       .     S
H22   C33    1.11190       .     S
H23   C32    1.11276       .     S
H24   C32    1.10832       .     S
H25   C28    1.08696       .     S
C26   C27    1.35479       .     D
C26   C28    1.47910       .     S
C26   C32    1.51746       .     S
C27   H16    1.08624       .     S
C27   C26    1.35479       .     D
C27   C31    1.46069       .     S
C28   H25    1.08696       .     S
C28   C26    1.47910       .     S
C28   C29    1.33991       .     S
C29   H17    1.08626       .     D
C29   C28    1.33991       .     S
C29   C30    1.45645       .     S
C30   C29    1.45645       .     S
C30   O37    1.29428       .     D
C30   O38    1.28873       .     S
C31   C27    1.46069       .     S
C31   O35    1.29646       .     S
C31   O36    1.29897       .     S
C32   H23    1.11276       .     S
C32   H24    1.10832       .     S
C32   C26    1.51746       .     S
C32   C33    1.53372       .     S
C33   H21    1.10933       .     S
C33   H22    1.11190       .     S
C33   C32    1.53372       .     D
C33   C34    1.52582       .     S
C34   H18    1.11087       .     S
C34   H19    1.11089       .     S
C34   H20    1.10989       .     S
C34   C33    1.52582       .     D
O35   C31    1.29646       .     D
O35   Zn58   3.94431       .     S
O36   C31    1.29897       .     D
O36   Zn59   4.69653       .     S
O37   C30    1.29428       .     S
O37   Zn40   5.34624       .     S
O38   C30    1.28873       .     S
O38   Zn40   4.08014       .     S
Zn39  Zn40   3.00991       .     D
Zn39  O112   2.87761       .     S
Zn39  O133   3.47615       .     S
Zn39  O134   3.05045       .     S
Zn39  N271   1.98450       .     S
Zn40  O37    5.34624       .     D
Zn40  O38    4.08014       .     D
Zn40  Zn39   3.00991       .     S
Zn40  N269   3.36856       .     D
Zn40  O287   6.92952       .     S
H41   C48    1.08671       .     S
H42   C46    1.08374       .     S
H43   C45    1.08429       .     S
H44   O55    0.99136       .     S
C45   H43    1.08429       .     S
C45   C48    1.33793       .     S
C45   C50    1.45717       .     S
C46   H42    1.08374       .     S
C46   C47    1.34956       .     S
C46   C49    1.45650       .     S
C47   C46    1.34956       .     S
C47   C48    1.47512       .     S
C47   O55    1.38284       .     D
C48   H41    1.08671       .     S
C48   C45    1.33793       .     S
C48   C47    1.47512       .     A
C49   C46    1.45650       .     A
C49   O53    1.30917   1_556     S
C49   O54    1.29843       .     S
C50   C45    1.45717       .     S
C50   O51    1.27382       .     S
C50   O52    1.26925       .     A
O51   C50    1.27382       .     A
O51   Zn56   5.73182       .     S
O52   C50    1.26925       .     S
O52   Zn57   4.83253       .     S
O53   C49    1.30917   1_554     S
O53   Zn63   3.08431       .     S
O54   C49    1.29843       .     S
O54   Zn63   3.01807   1_556     A
O55   H44    0.99136       .     S
O55   C47    1.38284       .     A
Zn56  O12    9.61142   1_645     S
Zn56  O51    5.73182       .     S
Zn56  Zn57   2.94674       .     S
Zn56  O200  10.50067   1_655     S
Zn56  O332   4.65914   1_655     S
Zn57  O52    4.83253       .     T
Zn57  Zn56   2.94674       .     S
Zn57  O178   6.86221   1_655     S
Zn57  O199  17.38633   1_545     S
Zn57  O201  10.59857   1_655     S
Zn58  O35    3.94431       .     A
Zn58  Zn59   2.98515       .     A
Zn58  O175   7.81529       .     S
Zn58  O177   8.26509       .     A
Zn58  O333   2.73927       .     S
Zn59  O14    4.36811       .     A
Zn59  O36    4.69653       .     S
Zn59  Zn58   2.98515       .     S
Zn59  O285  13.29292   1_465     A
Zn59  O300  14.28535       .     S
Zn60  Zn61   3.00862       .     A
Zn60  O113   2.68855       .     S
Zn60  O115   3.42479       .     S
Zn60  N270   5.28425   1_655     S
Zn60  O286   4.75622       .     S
Zn61  Zn60   3.00862       .     S
Zn61  O176  10.89074   1_654     S
Zn61  N268   2.84528   1_655     S
Zn61  O334  16.24077   1_655     S
Zn61  O335  10.06211   1_645     S
Zn62  Zn63   3.01006   1_556     S
Zn62  O131   2.72148   1_556     S
Zn62  O132   3.43654       .     D
Zn62  O302   2.78935   1_556     S
Zn62  O348   0.55413       .     S
Zn63  O53    3.08431       .     S
Zn63  O54    3.01807   1_554     S
Zn63  Zn62   3.01006   1_554     D
Zn63  O114   5.63585       .     S
Zn63  O349   1.66741       .     S
H64   C92    1.07781   1_545     A
H65   C93    1.08256       .     A
H66   C98    1.08300       .     S
H67   C99    1.06895       .     S
H68   C104   1.11477       .     S
H69   C104   1.11517       .     S
H70   C105   1.10833       .     A
H71   C105   1.11056       .     A
H72   C105   1.10955       .     S
H73   C106   1.10677       .     S
H74   C106   1.11750       .     S
H75   C107   1.10941       .     S
H76   C107   1.10694       .     S
H77   C107   1.11107       .     S
H78   C108   1.10465       .     A
H79   C108   1.11913       .     S
H80   C109   1.10711       .     A
H81   C109   1.10948       .     S
H82   C109   1.11058       .     S
H83   C110   1.11659       .     S
H84   C110   1.11268       .     S
H85   C111   1.10452       .     S
H86   C111   1.11035       .     T
H87   C111   1.10650       .     S
C88   C95    1.50704       .     S
C88   O112   1.33299       .     S
C88   O114   1.34660       .     S
C89   C94    1.50393   1_545     A
C89   O113   1.33272       .     A
C89   O115   1.34538       .     S
C90   C92    1.40882       .     A
C90   C100   1.40909       .     S
C90   O116   1.37977       .     A
C91   C93    1.40995       .     S
C91   C101   1.40665       .     S
C91   O117   1.37271       .     A
C92   H64    1.07781   1_565     S
C92   C90    1.40882       .     A
C92   C94    1.40343       .     S
C93   H65    1.08256       .     S
C93   C91    1.40995       .     S
C93   C95    1.40949       .     S
C94   C89    1.50393   1_565     S
C94   C92    1.40343       .     S
C94   C96    1.41943       .     S
C95   C88    1.50704       .     S
C95   C93    1.40949       .     S
C95   C97    1.42448       .     S
C96   C94    1.41943       .     S
C96   C98    1.41275       .     D
C96   O118   1.38303       .     S
C97   C95    1.42448       .     S
C97   C99    1.40473       .     S
C97   O119   1.38238       .     S
C98   H66    1.08300       .     S
C98   C96    1.41275       .     S
C98   C100   1.40057       .     D
C99   H67    1.06895       .     D
C99   C97    1.40473       .     S
C99   C101   1.39072       .     S
C100  C90    1.40909       .     S
C100  C98    1.40057       .     S
C100  C102   1.46407       .     D
C101  C91    1.40665       .     S
C101  C99    1.39072       .     S
C101  C103   1.46716       .     D
C102  C100   1.46407       .     S
C102  C103   1.22039       .     S
C103  C101   1.46716       .     S
C103  C102   1.22039       .     S
C104  H68    1.11477       .     S
C104  H69    1.11517       .     S
C104  C105   1.52537       .     D
C104  O116   1.42120       .     D
C105  H70    1.10833       .     S
C105  H71    1.11056       .     S
C105  H72    1.10955       .     S
C105  C104   1.52537       .     S
C106  H73    1.10677       .     D
C106  H74    1.11750       .     S
C106  C107   1.51112       .     S
C106  O117   1.41264       .     D
C107  H75    1.10941       .     S
C107  H76    1.10694       .     S
C107  H77    1.11107       .     S
C107  C106   1.51112       .     S
C108  H78    1.10465       .     D
C108  H79    1.11913       .     S
C108  C109   1.52086       .     S
C108  O118   1.42117       .     S
C109  H80    1.10711       .     S
C109  H81    1.10948       .     S
C109  H82    1.11058       .     S
C109  C108   1.52086       .     S
C110  H83    1.11659       .     S
C110  H84    1.11268       .     A
C110  C111   1.52180       .     A
C110  O119   1.41684       .     D
C111  H85    1.10452       .     S
C111  H86    1.11035       .     A
C111  H87    1.10650       .     A
C111  C110   1.52180       .     S
O112  Zn39   2.87761       .     A
O112  C88    1.33299       .     A
O113  Zn60   2.68855       .     S
O113  C89    1.33272       .     S
O114  Zn63   5.63585       .     S
O114  C88    1.34660       .     S
O115  Zn60   3.42479       .     S
O115  C89    1.34538       .     T
O116  C90    1.37977       .     S
O116  C104   1.42120       .     S
O117  C91    1.37271       .     S
O117  C106   1.41264       .     S
O118  C96    1.38303       .     S
O118  C108   1.42117       .     A
O119  C97    1.38238       .     A
O119  C110   1.41684       .     S
H120  C127   1.08358       .     A
H121  C125   1.08763       .     A
H122  C126   1.08648       .     S
H123  O136   1.01409       .     A
C124  C127   1.34845       .     A
C124  C129   1.44505       .     S
C124  C130   1.49273       .     D
C125  H121   1.08763       .     S
C125  C126   1.33344       .     S
C125  C128   1.44794       .     S
C126  H122   1.08648       .     S
C126  C125   1.33344       .     S
C126  C127   1.45146       .     S
C127  H120   1.08358       .     D
C127  C124   1.34845       .     S
C127  C126   1.45146       .     D
C128  C125   1.44794       .     S
C128  O133   1.27368       .     S
C128  O134   1.26849       .     S
C129  C124   1.44505       .     S
C129  O131   1.29084       .     S
C129  O132   1.27978   1_554     S
C130  C124   1.49273       .     S
C130  O135   1.22336       .     S
C130  O136   1.39816       .     A
O131  Zn62   2.72148   1_554     A
O131  C129   1.29084       .     D
O132  Zn62   3.43654       .     S
O132  C129   1.27978   1_556     A
O133  Zn39   3.47615       .     A
O133  C128   1.27368       .     S
O134  Zn39   3.05045       .     A
O134  C128   1.26849       .     A
O135  C130   1.22336       .     S
O136  H123   1.01409       .     S
O136  C130   1.39816       .     S
H137  C159   1.08608       .     S
H138  C160   1.08597       .     S
H139  O180   1.01378   1_655     T
H140  O182   1.01367       .     S
H141  C171   1.10545       .     S
H142  C171   1.11065       .     S
H143  C171   1.10915       .     S
H144  C172   1.10549       .     S
H145  C172   1.11067       .     A
H146  C172   1.10905       .     A
H147  C173   1.11009       .     S
H148  C173   1.11041       .     A
H149  C173   1.10762       .     A
H150  C174   1.11009       .     S
H151  C174   1.11039       .     A
H152  C174   1.10758       .     A
C153  C164   1.45212       .     S
C153  O175   1.27880       .     D
C153  O177   1.27865       .     S
C154  C163   1.45160       .     S
C154  O176   1.27866       .     S
C154  O178   1.27847       .     S
C155  C157   1.41270       .     S
C155  C159   1.38742       .     S
C155  C167   1.40925       .     D
C156  C158   1.41253       .     S
C156  C160   1.38723       .     S
C156  C168   1.40939       .     S
C157  C155   1.41270       .     S
C157  C158   1.18672       .     D
C158  C156   1.41253       .     D
C158  C157   1.18672       .     D
C159  H137   1.08608       .     S
C159  C155   1.38742       .     S
C159  C161   1.38472       .     D
C160  H138   1.08597       .     S
C160  C156   1.38723       .     S
C160  C162   1.38477       .     S
C161  C159   1.38472       .     S
C161  C163   1.41280       .     S
C161  C169   1.48675       .     S
C162  C160   1.38477       .     S
C162  C164   1.41294       .     S
C162  C170   1.48657       .     S
C163  C154   1.45160       .     S
C163  C161   1.41280       .     S
C163  C165   1.42120       .     S
C164  C153   1.45212       .     D
C164  C162   1.41294       .     D
C164  C166   1.42110       .     D
C165  C163   1.42120       .     S
C165  C167   1.41355       .     S
C165  C171   1.52109       .     D
C166  C164   1.42110       .     S
C166  C168   1.41355       .     S
C166  C172   1.52115       .     S
C167  C155   1.40925       .     S
C167  C165   1.41355       .     S
C167  C173   1.51779       .     S
C168  C156   1.40939       .     S
C168  C166   1.41355       .     S
C168  C174   1.51781       .     S
C169  C161   1.48675       .     D
C169  O179   1.22356       .     S
C169  O180   1.39625       .     S
C170  C162   1.48657       .     S
C170  O181   1.22344       .     S
C170  O182   1.39619       .     D
C171  H141   1.10545       .     S
C171  H142   1.11065       .     S
C171  H143   1.10915       .     S
C171  C165   1.52109       .     S
C172  H144   1.10549       .     S
C172  H145   1.11067       .     S
C172  H146   1.10905       .     S
C172  C166   1.52115       .     S
C173  H147   1.11009       .     S
C173  H148   1.11041       .     S
C173  H149   1.10762       .     S
C173  C167   1.51779       .     S
C174  H150   1.11009       .     S
C174  H151   1.11039       .     S
C174  H152   1.10758       .     A
C174  C168   1.51781       .     A
O175  Zn58   7.81529       .     A
O175  C153   1.27880       .     S
O176  Zn61  10.89074   1_456     S
O176  C154   1.27866       .     S
O177  Zn58   8.26509       .     S
O177  C153   1.27865       .     S
O178  Zn57   6.86221   1_455     S
O178  C154   1.27847       .     A
O179  C169   1.22356       .     S
O180  H139   1.01378   1_455     A
O180  C169   1.39625       .     S
O181  C170   1.22344       .     S
O182  H140   1.01367       .     S
O182  C170   1.39619       .     A
H183  C192   1.08535       .     A
H184  C194   1.08790       .     S
H185  N197   1.02919   1_565     S
H186  C196   1.11036       .     S
H187  C196   1.10967       .     S
H188  C196   1.11108       .     S
H189  C191   1.08706   1_655     S
C190  C191   1.44880       .     A
C190  O198   1.29357       .     S
C190  O199   1.29930   1_455     A
C191  H189   1.08706   1_455     S
C191  C190   1.44880       .     A
C191  C192   1.33536       .     S
C192  H183   1.08535       .     S
C192  C191   1.33536       .     S
C192  C194   1.44042       .     S
C193  C194   1.34609   1_545     S
C193  C195   1.44870       .     S
C193  N197   1.42518       .     S
C194  H184   1.08790       .     S
C194  C192   1.44042       .     S
C194  C193   1.34609   1_565     S
C195  C193   1.44870       .     A
C195  O200   1.29889       .     S
C195  O201   1.29279       .     S
C196  H186   1.11036       .     A
C196  H187   1.10967       .     S
C196  H188   1.11108       .     D
C196  N197   1.44499       .     S
N197  H185   1.02919   1_545     S
N197  C193   1.42518       .     S
N197  C196   1.44499       .     S
O198  Zn0   18.49072       .     S
O198  C190   1.29357       .     S
O199  Zn57  17.38633   1_565     D
O199  C190   1.29930   1_655     S
O200  Zn56  10.50067   1_455     S
O200  C195   1.29889       .     D
O201  Zn57  10.59857   1_455     S
O201  C195   1.29279       .     S
H202  C252   1.11070       .     S
H203  C252   1.11141       .     S
H204  C252   1.11051       .     D
H205  C251   1.10078       .     S
H206  C251   1.10914       .     S
H207  C250   1.10654       .     S
H208  C250   1.10688       .     S
H209  C256   1.11076       .     S
H210  C256   1.11080       .     S
H211  C256   1.11049       .     S
H212  C255   1.10737       .     S
H213  C255   1.10694       .     S
H214  C254   1.10870       .     S
H215  C254   1.10420       .     S
H216  C259   1.11073       .     S
H217  C259   1.10804       .     S
H218  C259   1.11036       .     S
H219  C258   1.10943       .     A
H220  C258   1.10940       .     A
H221  C257   1.10348       .     A
H222  C257   1.10392       .     S
H223  C262   1.11035       .     S
H224  C262   1.11079       .     S
H225  C262   1.11031       .     S
H226  C261   1.11101       .     S
H227  C261   1.11072       .     S
H228  C260   1.10848       .     A
H229  C260   1.10318       .     S
C230  C241   1.39080       .     A
C230  C249   1.44911       .     S
C230  C267   1.36314       .     S
H231  C266   1.07046       .     S
H232  C267   1.07669       .     A
H233  C240   1.08084       .     A
H234  C241   1.07717       .     S
H235  C239   1.08149       .     S
H236  C246   1.08428       .     S
H237  C263   1.08360       .     S
H238  C253   1.08393       .     S
C239  H235   1.08149       .     S
C239  C248   1.40477       .     A
C239  C253   1.38296       .     S
C240  H233   1.08084       .     A
C240  C242   1.40955       .     S
C240  N269   1.34855       .     A
C241  C230   1.39080       .     S
C241  H234   1.07717       .     S
C241  N270   1.34835       .     S
C242  C240   1.40955       .     S
C242  C248   1.48921       .     S
C242  C266   1.37272       .     S
C243  C245   1.42205       .     S
C243  C250   1.53266       .     S
C243  C264   1.41477       .     S
C244  C247   1.42227       .     S
C244  C254   1.52701       .     A
C244  C265   1.42526       .     S
C245  C243   1.42205       .     S
C245  C248   1.43916       .     A
C245  C257   1.52546       .     S
C246  H236   1.08428       .     D
C246  C249   1.39689       .     S
C246  C263   1.37959       .     S
C247  C244   1.42227       .     S
C247  C249   1.41649       .     S
C247  C260   1.52786       .     S
C248  C239   1.40477       .     S
C248  C242   1.48921       .     D
C248  C245   1.43916       .     S
C249  C230   1.44911       .     S
C249  C246   1.39689       .     D
C249  C247   1.41649       .     S
C250  H207   1.10654       .     S
C250  H208   1.10688       .     S
C250  C243   1.53266       .     D
C250  C251   1.53790       .     S
C251  H205   1.10078       .     S
C251  H206   1.10914       .     S
C251  C250   1.53790       .     S
C251  C252   1.52532       .     D
C252  H202   1.11070       .     S
C252  H203   1.11141       .     S
C252  H204   1.11051       .     S
C252  C251   1.52532       .     S
C253  H238   1.08393       .     D
C253  C239   1.38296       .     S
C253  C264   1.38952       .     D
C254  H214   1.10870       .     S
C254  H215   1.10420       .     S
C254  C244   1.52701       .     S
C254  C255   1.53629       .     D
C255  H212   1.10737       .     S
C255  H213   1.10694       .     S
C255  C254   1.53629       .     S
C255  C256   1.52563       .     S
C256  H209   1.11076       .     D
C256  H210   1.11080       .     S
C256  H211   1.11049       .     S
C256  C255   1.52563       .     S
C257  H221   1.10348       .     S
C257  H222   1.10392       .     D
C257  C245   1.52546       .     S
C257  C258   1.54116       .     D
C258  H219   1.10943       .     S
C258  H220   1.10940       .     S
C258  C257   1.54116       .     S
C258  C259   1.52456       .     S
C259  H216   1.11073       .     S
C259  H217   1.10804       .     S
C259  H218   1.11036       .     S
C259  C258   1.52456       .     S
C260  H228   1.10848       .     D
C260  H229   1.10318       .     S
C260  C247   1.52786       .     S
C260  C261   1.53730       .     D
C261  H226   1.11101       .     S
C261  H227   1.11072       .     D
C261  C260   1.53730       .     S
C261  C262   1.52614       .     S
C262  H223   1.11035       .     S
C262  H224   1.11079       .     S
C262  H225   1.11031       .     S
C262  C261   1.52614       .     S
C263  H237   1.08360       .     S
C263  C246   1.37959       .     S
C263  C265   1.39169       .     D
C264  C243   1.41477       .     S
C264  C253   1.38952       .     S
C264  C265   1.46546       .     D
C265  C244   1.42526       .     S
C265  C263   1.39169       .     D
C265  C264   1.46546       .     S
C266  H231   1.07046       .     S
C266  C242   1.37272       .     S
C266  N271   1.31933       .     D
C267  C230   1.36314       .     S
C267  H232   1.07669       .     S
C267  N268   1.32827       .     S
N268  Zn61   2.84528   1_455     S
N268  C267   1.32827       .     S
N268  N270   1.37214       .     S
N269  Zn40   3.36856       .     S
N269  C240   1.34855       .     D
N269  N271   1.37214       .     S
N270  Zn60   5.28425   1_455     S
N270  C241   1.34835       .     S
N270  N268   1.37214       .     S
N271  Zn39   1.98450       .     S
N271  C266   1.31933       .     S
N271  N269   1.37214       .     S
H272  C282   1.08789       .     S
H273  C281   1.08683       .     S
H274  C279   1.08769       .     S
H275  C284   1.11058       .     S
H276  C284   1.10993       .     S
H277  C284   1.11107       .     S
C278  C279   1.45583       .     D
C278  O285   1.29235       .     S
C278  O286   1.29718       .     S
C279  H274   1.08769       .     S
C279  C278   1.45583       .     S
C279  C280   1.34717       .     D
C280  C279   1.34717       .     S
C280  C282   1.45941       .     S
C280  C284   1.51715       .     S
C281  H273   1.08683       .     D
C281  C282   1.33797       .     S
C281  C283   1.45358       .     S
C282  H272   1.08789       .     S
C282  C280   1.45941       .     S
C282  C281   1.33797       .     S
C283  C281   1.45358       .     S
C283  O287   1.29515       .     S
C283  O288   1.29400       .     D
C284  H275   1.11058       .     S
C284  H276   1.10993       .     S
C284  H277   1.11107       .     S
C284  C280   1.51715       .     S
O285  Zn59  13.29292   1_645     S
O285  C278   1.29235       .     S
O286  Zn60   4.75622       .     S
O286  C278   1.29718       .     S
O287  Zn40   6.92952       .     S
O287  C283   1.29515       .     S
O288  Zn1   12.59127   1_554     S
O288  C283   1.29400       .     S
H289  C295   1.08146       .     S
H290  C294   1.08625       .     D
H291  C293   1.08914       .     S
H292  O303   0.99151       .     S
C293  H291   1.08914       .     S
C293  C296   1.32984       .     S
C293  C297   1.44279       .     S
C294  H290   1.08625       .     D
C294  C295   1.34097       .     S
C294  C298   1.43681       .     D
C295  H289   1.08146       .     S
C295  C294   1.34097       .     D
C295  C296   1.44985       .     S
C296  C293   1.32984       .     S
C296  C295   1.44985       .     S
C296  O303   1.38348       .     D
C297  C293   1.44279       .     S
C297  O301   1.28139   1_554     S
C297  O302   1.28600       .     S
C298  C294   1.43681       .     S
C298  O299   1.28104       .     D
C298  O300   1.29078       .     S
O299  Zn0   16.76610       .     D
O299  C298   1.28104       .     S
O300  Zn59  14.28535       .     D
O300  C298   1.29078       .     S
O301  Zn1    8.57077       .     S
O301  C297   1.28139   1_556     S
O302  Zn62   2.78935   1_554     D
O302  C297   1.28600       .     S
O303  H292   0.99151       .     S
O303  C296   1.38348       .     S
C304  C306   1.50836       .     S
C304  O332   1.31577       .     S
C304  O334   1.35618       .     S
C305  C307   1.50965       .     S
C305  O333   1.31634       .     S
C305  O335   1.35651       .     S
C306  C304   1.50836       .     S
C306  C308   1.38690       .     S
C306  H317   1.08612       .     S
C307  C305   1.50965       .     S
C307  C309   1.38711   1_565     S
C307  H316   1.08617   1_565     S
C308  C306   1.38690       .     S
C308  C309   1.51472       .     S
C308  C313   1.53102       .     S
C309  C307   1.38711   1_545     S
C309  C308   1.51472       .     S
C309  C310   1.53226   1_545     S
C310  C309   1.53226   1_565     S
C310  C311   1.53917   1_565     S
C310  H323   1.11163       .     S
C310  H324   1.11235       .     S
C311  C310   1.53917   1_545     S
C311  C312   1.52506       .     S
C311  H321   1.10919       .     S
C311  H322   1.10477       .     S
C312  C311   1.52506       .     S
C312  H318   1.11091   1_545     S
C312  H319   1.10946       .     S
C312  H320   1.10921       .     S
C313  C308   1.53102       .     S
C313  C314   1.53742       .     S
C313  H330   1.11138       .     S
C313  H331   1.11157       .     S
C314  C313   1.53742       .     S
C314  C315   1.52906       .     S
C314  H328   1.10926       .     S
C314  H329   1.10718       .     S
C315  C314   1.52906       .     S
C315  H325   1.11045       .     S
C315  H326   1.11095       .     S
C315  H327   1.10898       .     S
H316  C307   1.08617   1_545     S
H317  C306   1.08612       .     S
H318  C312   1.11091   1_565     S
H319  C312   1.10946       .     S
H320  C312   1.10921       .     S
H321  C311   1.10919       .     S
H322  C311   1.10477       .     S
H323  C310   1.11163       .     S
H324  C310   1.11235       .     S
H325  C315   1.11045       .     S
H326  C315   1.11095       .     S
H327  C315   1.10898       .     S
H328  C314   1.10926       .     S
H329  C314   1.10718       .     S
H330  C313   1.11138       .     S
H331  C313   1.11157       .     S
O332  Zn56   4.65914   1_455     S
O332  C304   1.31577       .     S
O333  Zn58   2.73927       .     S
O333  C305   1.31634       .     S
O334  Zn61  16.24077   1_455     S
O334  C304   1.35618       .     S
O335  Zn61  10.06211   1_465     S
O335  C305   1.35651       .     S
H336  C340   1.08552       .     S
H337  C341   1.08733       .     S
H338  C342   1.08619       .     S
C339  C343   1.46064       .     S
C339  O346   1.28012       .     S
C339  O347   1.29638       .     S
C340  H336   1.08552       .     S
C340  C341   1.33722       .     S
C340  C342   1.47628       .     S
C341  H337   1.08733       .     S
C341  C340   1.33722       .     S
C341  C344   1.45081       .     S
C342  H338   1.08619       .     S
C342  C340   1.47628       .     S
C342  C343   1.34836       .     S
C343  C339   1.46064       .     S
C343  C342   1.34836       .     S
C343  C345   1.45549       .     S
C344  C341   1.45081       .     S
C344  O348   1.29793       .     S
C344  O349   1.28736   1_556     S
C345  C343   1.45549       .     S
O346  Zn1    3.36478       .     S
O346  C339   1.28012       .     S
O347  Zn1    2.74674       .     S
O347  C339   1.29638       .     S
O348  Zn62   0.55413       .     S
O348  C344   1.29793       .     S
O349  Zn63   1.66741       .     S
O349  C344   1.28736   1_554     S
