data_sample_4_relaxed_charged

_audit_creation_method RASPA-1.0
_audit_creation_date 2026-2-4
_audit_author_name ''

_cell_length_a    21.2975
_cell_length_b    31.2833
_cell_length_c    33.6274
_cell_angle_alpha 93.1529
_cell_angle_beta  90.9175
_cell_angle_gamma 90.8731
_cell_volume      22364.7

_symmetry_cell_setting          triclinic
_symmetry_space_group_name_Hall 'P 1'
_symmetry_space_group_name_H-M  'P 1'
_symmetry_Int_Tables_number     1

_symmetry_equiv_pos_as_xyz 'x,y,z'

loop_
_atom_site_label
_atom_site_type_symbol
_atom_site_fract_x
_atom_site_fract_y
_atom_site_fract_z
_atom_site_charge
Zn0      Zn     0.161205010000     0.190888900000     0.412310630000     1.36779    
Zn1      Zn     0.234265940000     0.150762630000     0.346274020000     1.38268    
H2       H      0.469360400000     0.265628200000     0.337640075000     0.009555   
H3       H      0.049997270000     0.042816935000     0.454180630000     0.072608   
H4       H      0.393956850000     0.157548785000     0.275940925000     0.064518   
H5       H      0.417537780000     0.170015665000     0.205896435000     0.033738   
H6       H      0.018313945000     0.204537915000     0.188722520000     0.036614   
H7       H      0.095618425000     0.226839200000     0.242005885000     0.028538   
H8       H      0.072825730000     0.215217320000     0.311882675000     0.052459   
H9       H      0.001563670000     0.185237510000     0.483218450000    -0.151282   
H10      H      0.478060250000     0.172777310000     0.053274870000     0.044585   
H11      H      0.377240350000     0.138331190000     0.070504250000     0.036803   
H12      H      0.299808050000     0.116129800000     0.017271520000     0.04181    
H13      H      0.412098150000     0.296098085000     0.365597935000     0.018468   
H14      H      0.322519000000     0.127750485000     0.447375030000     0.046514   
H15      H      0.018965720000     0.097608945000     0.304780300000     0.065666   
H16      H      0.006201205000     0.029722415000     0.264418485000     0.026729   
H17      H      0.409679200000     0.485263050000     0.269634700000     0.044209   
H18      H      0.326217235000     0.008493015000     0.316189950000     0.036646   
H19      H      0.338389250000     0.075622595000     0.357144950000     0.046951   
H20      H      0.376320050000     0.245257540000     0.454338520000     0.058702   
H21      H      0.389024825000     0.313116850000     0.494746625000     0.032818   
H22      H      0.485589100000     0.357558600000     0.489668050000     0.039691   
H23      H      0.069149615000     0.334345350000     0.443190850000     0.040844   
H24      H      0.345588475000     0.299940550000     0.304784950000     0.08116    
H25      H      0.057038010000     0.267244700000     0.402184130000     0.042627   
H26      H      0.423984100000     0.320316525000     0.296966730000     0.064706   
H27      H      0.401005715000     0.267558750000     0.276711050000     0.079524   
H28      H      0.483125925000     0.046849220000     0.393484350000     0.01951    
H29      H      0.426060800000     0.077285140000     0.421688380000    -0.000814   
H30      H      0.494612550000     0.075013860000     0.482462315000     0.092883   
H31      H      0.471698100000     0.022323310000     0.462042950000     0.059655   
H32      H      0.110842595000     0.362932620000     0.363439470000     0.061836   
H33      H      0.285624625000     0.478282850000     0.393422450000     0.056979   
H34      H      0.104234920000     0.485112900000     0.335234225000     0.053749   
H35      H      0.292242250000     0.356101400000     0.421612830000     0.061267   
H36      H      0.121516490000     0.062296150000     0.330310150000     0.030523   
H37      H      0.274960300000     0.278913200000     0.426537425000     0.040308   
H38      H      0.096273465000     0.285139530000     0.370444900000     0.006421   
H39      H      0.300194085000     0.056080880000     0.386416525000     0.011406   
H40      H      0.136211100000     0.202868520000     0.263078600000     0.051649   
H41      H      0.128084825000     0.203274920000     0.190669450000     0.05224    
H42      H      0.071106515000     0.159781770000     0.074001610000     0.0543     
H43      H      0.306217300000     0.129653950000     0.252712280000     0.066258   
H44      H      0.297977450000     0.130155070000     0.180291950000     0.052007   
H45      H      0.047181985000     0.092128590000     0.013885450000     0.068324   
H46      H      0.446529865000     0.075393720000     0.478340270000     0.028917   
H47      H      0.394253970000     0.130601450000     0.439923465000     0.038915   
H48      H      0.263390200000     0.202916250000     0.004052500000     0.055115   
H49      H      0.442578750000     0.202949250000     0.437333225000     0.095632   
H50      H      0.043299305000     0.220179530000     0.472476185000    -0.023511   
H51      H      0.226207765000     0.261988950000     0.116456200000     0.050359   
H52      H      0.319740600000     0.291660950000     0.153147370000     0.030614   
H53      H      0.424590765000     0.260944000000     0.140398415000     0.037114   
H54      H      0.435866115000     0.200224850000     0.090632120000     0.027015   
H55      H      0.342822000000     0.169735030000     0.053930500000     0.058221   
C56      C      0.428421450000     0.166715965000     0.417333275000    -0.005523   
C57      C      0.436449000000     0.134906350000     0.356739650000    -0.013682   
C58      C      0.458939350000     0.207967490000     0.402467000000    -0.045927   
C59      C      0.417965530000     0.203454630000     0.364282050000     0.124116   
C60      C      0.477422835000     0.139419200000     0.394924650000     0.142161   
C61      C      0.387368770000     0.162497050000     0.379048615000    -0.081106   
C62      C      0.008023860000     0.180379110000     0.380161900000    -0.160121   
C63      C      0.418241680000     0.272003980000     0.340506650000     0.086808   
C64      C      0.395715300000     0.291128200000     0.302321075000    -0.192164   
C65      C      0.477155350000     0.070862540000     0.418671965000     0.109233   
C66      C      0.499867765000     0.051568880000     0.456753900000    -0.18174    
C67      C      0.482598720000     0.183876410000     0.299194800000     0.013201   
C68      C      0.438470930000     0.172235475000     0.268850800000    -0.047282   
C69      C      0.451550450000     0.179377975000     0.229137750000    -0.018279   
C70      C      0.008347690000     0.198792265000     0.219444260000    -0.040809   
C71      C      0.051979420000     0.211263465000     0.249476535000    -0.020984   
C72      C      0.039136410000     0.204059930000     0.289211200000    -0.040308   
C73      C      0.412833480000     0.159004820000     0.460016220000     0.015533   
C74      C      0.457030000000     0.170593990000     0.490336150000     0.113115   
C75      C      0.443994200000     0.163454980000     0.030055525000    -0.076438   
C76      C      0.387167335000     0.144089610000     0.039777515000    -0.049951   
C77      C      0.343466650000     0.131666300000     0.009771285000    -0.024704   
C78      C      0.356261100000     0.138870100000     0.470027985000    -0.070822   
C79      C      0.428177985000     0.093030790000     0.332519600000     0.047174   
C80      C      0.476215185000     0.078796870000     0.307089715000    -0.067688   
C81      C      0.469323575000     0.040225065000     0.284294130000     0.000607   
C82      C      0.414971600000     0.015135970000     0.287252725000    -0.051966   
C83      C      0.367822380000     0.028327320000     0.313378780000    -0.021893   
C84      C      0.374524265000     0.066906750000     0.336183520000    -0.043731   
C85      C      0.467174230000     0.249844685000     0.426697400000     0.029968   
C86      C      0.419083685000     0.264066750000     0.452082650000    -0.063334   
C87      C      0.425947050000     0.302621350000     0.474908000000    -0.011386   
C88      C      0.480324200000     0.327701150000     0.472025720000    -0.045898   
C89      C      0.027527390000     0.314519400000     0.445940750000    -0.021684   
C90      C      0.020848690000     0.275957020000     0.423105985000    -0.046215   
C91      C      0.074548065000     0.183788250000     0.383378050000     0.461933   
C92      C      0.320848825000     0.159082415000     0.375840215000     0.225968   
C93      C      0.466971800000     0.176158000000     0.341873765000     0.034416   
C94      C      0.257717300000     0.040146350000     0.374919750000     0.024508   
C95      C      0.138750435000     0.301068850000     0.381936250000     0.049158   
C96      C      0.249060690000     0.495829880000     0.379057650000    -0.078245   
C97      C      0.147406490000     0.345385580000     0.377804250000    -0.099257   
C98      C      0.192851690000     0.475111500000     0.364837750000     0.090312   
C99      C      0.203620060000     0.366098350000     0.392017275000     0.10792    
C100     C      0.147941560000     0.499744920000     0.346364915000    -0.073917   
C101     C      0.248531220000     0.341469550000     0.410483600000    -0.104733   
C102     C      0.158091650000     0.043648540000     0.343261650000     0.026115   
C103     C      0.238376700000     0.297566200000     0.413588315000     0.063967   
C104     C      0.225297735000     0.163484125000     0.306970715000     0.056109   
C105     C      0.112831270000     0.167526975000     0.016822415000     0.026078   
C106     C      0.167115120000     0.187007280000     0.203826740000    -0.063075   
C107     C      0.170408220000     0.180419860000     0.453223375000     0.042525   
C108     C      0.171884835000     0.187055975000     0.245298650000    -0.023374   
C109     C      0.212433470000     0.165969210000     0.179950030000     0.084675   
C110     C      0.221654670000     0.166133925000     0.263455035000     0.026394   
C111     C      0.267135000000     0.145892575000     0.239540620000    -0.017954   
C112     C      0.262494475000     0.145979375000     0.198238180000    -0.067291   
C113     C      0.052823970000     0.157206820000     0.495365620000    -0.07081    
C114     C      0.024754010000     0.116473630000     0.497183100000    -0.043658   
C115     C      0.467821100000     0.106915705000     0.477087200000    -0.05453    
C116     C      0.438315150000     0.138032110000     0.455438020000     0.003169   
C117     C      0.465596900000     0.178811180000     0.453935000000    -0.164613   
C118     C      0.022650335000     0.188443975000     0.473813200000     0.336924   
C119     C      0.277541965000     0.213429900000     0.082669420000     0.046072   
C120     C      0.271681130000     0.248122350000     0.110699410000    -0.056048   
C121     C      0.324580075000     0.265077400000     0.131479935000    -0.012642   
C122     C      0.383695700000     0.247783125000     0.124278470000    -0.046378   
C123     C      0.390043500000     0.213561200000     0.096208325000    -0.008952   
C124     C      0.337263880000     0.196460440000     0.075388625000    -0.068458   
C125     C      0.168134150000     0.179065250000     0.496891650000     0.013708   
C126     C      0.221606075000     0.192766590000     0.019207880000    -0.016095   
C127     C      0.221426370000     0.195056230000     0.060834335000    -0.036219   
C128     C      0.166868540000     0.181641755000     0.080658525000     0.080886   
C129     C      0.113221065000     0.168628275000     0.058509420000    -0.083569   
N130     N      0.212210535000     0.063273785000     0.357363500000    -0.145224   
N131     N      0.184261635000     0.277941100000     0.399490950000    -0.140071   
N132     N      0.178706825000     0.430502750000     0.368531400000    -0.08897    
N133     N      0.217764960000     0.410707150000     0.388323635000    -0.091414   
N134     N      0.164073540000     0.181650340000     0.122733950000    -0.089056   
N135     N      0.210933940000     0.164899230000     0.137711080000    -0.08551    
O136     O      0.014087675000     0.107603735000     0.411990350000    -0.195599   
O137     O      0.105757175000     0.159265130000     0.362680225000    -0.402901   
O138     O      0.289639600000     0.183605475000     0.396538050000    -0.352201   
O139     O      0.297342850000     0.150235550000     0.343125250000    -0.277616   
O140     O      0.098053930000     0.192635060000     0.416093000000    -0.629772   
O141     O      0.381298930000     0.235272700000     0.347228825000    -0.203076   
O142     O      0.265323670000     0.138990315000     0.321986650000    -0.68596    
O143     O      0.203602750000     0.209390650000     0.438003720000    -0.560745   
O144     O      0.187323985000     0.183808550000     0.329858550000    -0.479854   
O145     O      0.136902825000     0.154733700000     0.430586515000    -0.403907   
Zn0      Zn     0.161205010000     0.190888900000     0.912310630000     1.36779    
Zn1      Zn     0.234265940000     0.150762630000     0.846274020000     1.38268    
H2       H      0.469360400000     0.265628200000     0.837640075000     0.009555   
H3       H      0.049997270000     0.042816935000     0.954180630000     0.072608   
H4       H      0.393956850000     0.157548785000     0.775940925000     0.064518   
H5       H      0.417537780000     0.170015665000     0.705896435000     0.033738   
H6       H      0.018313945000     0.204537915000     0.688722520000     0.036614   
H7       H      0.095618425000     0.226839200000     0.742005885000     0.028538   
H8       H      0.072825730000     0.215217320000     0.811882675000     0.052459   
H9       H      0.001563670000     0.185237510000     0.983218450000    -0.151282   
H10      H      0.478060250000     0.172777310000     0.553274870000     0.044585   
H11      H      0.377240350000     0.138331190000     0.570504250000     0.036803   
H12      H      0.299808050000     0.116129800000     0.517271520000     0.04181    
H13      H      0.412098150000     0.296098085000     0.865597935000     0.018468   
H14      H      0.322519000000     0.127750485000     0.947375030000     0.046514   
H15      H      0.018965720000     0.097608945000     0.804780300000     0.065666   
H16      H      0.006201205000     0.029722415000     0.764418485000     0.026729   
H17      H      0.409679200000     0.485263050000     0.769634700000     0.044209   
H18      H      0.326217235000     0.008493015000     0.816189950000     0.036646   
H19      H      0.338389250000     0.075622595000     0.857144950000     0.046951   
H20      H      0.376320050000     0.245257540000     0.954338520000     0.058702   
H21      H      0.389024825000     0.313116850000     0.994746625000     0.032818   
H22      H      0.485589100000     0.357558600000     0.989668050000     0.039691   
H23      H      0.069149615000     0.334345350000     0.943190850000     0.040844   
H24      H      0.345588475000     0.299940550000     0.804784950000     0.08116    
H25      H      0.057038010000     0.267244700000     0.902184130000     0.042627   
H26      H      0.423984100000     0.320316525000     0.796966730000     0.064706   
H27      H      0.401005715000     0.267558750000     0.776711050000     0.079524   
H28      H      0.483125925000     0.046849220000     0.893484350000     0.01951    
H29      H      0.426060800000     0.077285140000     0.921688380000    -0.000814   
H30      H      0.494612550000     0.075013860000     0.982462315000     0.092883   
H31      H      0.471698100000     0.022323310000     0.962042950000     0.059655   
H32      H      0.110842595000     0.362932620000     0.863439470000     0.061836   
H33      H      0.285624625000     0.478282850000     0.893422450000     0.056979   
H34      H      0.104234920000     0.485112900000     0.835234225000     0.053749   
H35      H      0.292242250000     0.356101400000     0.921612830000     0.061267   
H36      H      0.121516490000     0.062296150000     0.830310150000     0.030523   
H37      H      0.274960300000     0.278913200000     0.926537425000     0.040308   
H38      H      0.096273465000     0.285139530000     0.870444900000     0.006421   
H39      H      0.300194085000     0.056080880000     0.886416525000     0.011406   
H40      H      0.136211100000     0.202868520000     0.763078600000     0.051649   
H41      H      0.128084825000     0.203274920000     0.690669450000     0.05224    
H42      H      0.071106515000     0.159781770000     0.574001610000     0.0543     
H43      H      0.306217300000     0.129653950000     0.752712280000     0.066258   
H44      H      0.297977450000     0.130155070000     0.680291950000     0.052007   
H45      H      0.047181985000     0.092128590000     0.513885450000     0.068324   
H46      H      0.446529865000     0.075393720000     0.978340270000     0.028917   
H47      H      0.394253970000     0.130601450000     0.939923465000     0.038915   
H48      H      0.263390200000     0.202916250000     0.504052500000     0.055115   
H49      H      0.442578750000     0.202949250000     0.937333225000     0.095632   
H50      H      0.043299305000     0.220179530000     0.972476185000    -0.023511   
H51      H      0.226207765000     0.261988950000     0.616456200000     0.050359   
H52      H      0.319740600000     0.291660950000     0.653147370000     0.030614   
H53      H      0.424590765000     0.260944000000     0.640398415000     0.037114   
H54      H      0.435866115000     0.200224850000     0.590632120000     0.027015   
H55      H      0.342822000000     0.169735030000     0.553930500000     0.058221   
C56      C      0.428421450000     0.166715965000     0.917333275000    -0.005523   
C57      C      0.436449000000     0.134906350000     0.856739650000    -0.013682   
C58      C      0.458939350000     0.207967490000     0.902467000000    -0.045927   
C59      C      0.417965530000     0.203454630000     0.864282050000     0.124116   
C60      C      0.477422835000     0.139419200000     0.894924650000     0.142161   
C61      C      0.387368770000     0.162497050000     0.879048615000    -0.081106   
C62      C      0.008023860000     0.180379110000     0.880161900000    -0.160121   
C63      C      0.418241680000     0.272003980000     0.840506650000     0.086808   
C64      C      0.395715300000     0.291128200000     0.802321075000    -0.192164   
C65      C      0.477155350000     0.070862540000     0.918671965000     0.109233   
C66      C      0.499867765000     0.051568880000     0.956753900000    -0.18174    
C67      C      0.482598720000     0.183876410000     0.799194800000     0.013201   
C68      C      0.438470930000     0.172235475000     0.768850800000    -0.047282   
C69      C      0.451550450000     0.179377975000     0.729137750000    -0.018279   
C70      C      0.008347690000     0.198792265000     0.719444260000    -0.040809   
C71      C      0.051979420000     0.211263465000     0.749476535000    -0.020984   
C72      C      0.039136410000     0.204059930000     0.789211200000    -0.040308   
C73      C      0.412833480000     0.159004820000     0.960016220000     0.015533   
C74      C      0.457030000000     0.170593990000     0.990336150000     0.113115   
C75      C      0.443994200000     0.163454980000     0.530055525000    -0.076438   
C76      C      0.387167335000     0.144089610000     0.539777515000    -0.049951   
C77      C      0.343466650000     0.131666300000     0.509771285000    -0.024704   
C78      C      0.356261100000     0.138870100000     0.970027985000    -0.070822   
C79      C      0.428177985000     0.093030790000     0.832519600000     0.047174   
C80      C      0.476215185000     0.078796870000     0.807089715000    -0.067688   
C81      C      0.469323575000     0.040225065000     0.784294130000     0.000607   
C82      C      0.414971600000     0.015135970000     0.787252725000    -0.051966   
C83      C      0.367822380000     0.028327320000     0.813378780000    -0.021893   
C84      C      0.374524265000     0.066906750000     0.836183520000    -0.043731   
C85      C      0.467174230000     0.249844685000     0.926697400000     0.029968   
C86      C      0.419083685000     0.264066750000     0.952082650000    -0.063334   
C87      C      0.425947050000     0.302621350000     0.974908000000    -0.011386   
C88      C      0.480324200000     0.327701150000     0.972025720000    -0.045898   
C89      C      0.027527390000     0.314519400000     0.945940750000    -0.021684   
C90      C      0.020848690000     0.275957020000     0.923105985000    -0.046215   
C91      C      0.074548065000     0.183788250000     0.883378050000     0.461933   
C92      C      0.320848825000     0.159082415000     0.875840215000     0.225968   
C93      C      0.466971800000     0.176158000000     0.841873765000     0.034416   
C94      C      0.257717300000     0.040146350000     0.874919750000     0.024508   
C95      C      0.138750435000     0.301068850000     0.881936250000     0.049158   
C96      C      0.249060690000     0.495829880000     0.879057650000    -0.078245   
C97      C      0.147406490000     0.345385580000     0.877804250000    -0.099257   
C98      C      0.192851690000     0.475111500000     0.864837750000     0.090312   
C99      C      0.203620060000     0.366098350000     0.892017275000     0.10792    
C100     C      0.147941560000     0.499744920000     0.846364915000    -0.073917   
C101     C      0.248531220000     0.341469550000     0.910483600000    -0.104733   
C102     C      0.158091650000     0.043648540000     0.843261650000     0.026115   
C103     C      0.238376700000     0.297566200000     0.913588315000     0.063967   
C104     C      0.225297735000     0.163484125000     0.806970715000     0.056109   
C105     C      0.112831270000     0.167526975000     0.516822415000     0.026078   
C106     C      0.167115120000     0.187007280000     0.703826740000    -0.063075   
C107     C      0.170408220000     0.180419860000     0.953223375000     0.042525   
C108     C      0.171884835000     0.187055975000     0.745298650000    -0.023374   
C109     C      0.212433470000     0.165969210000     0.679950030000     0.084675   
C110     C      0.221654670000     0.166133925000     0.763455035000     0.026394   
C111     C      0.267135000000     0.145892575000     0.739540620000    -0.017954   
C112     C      0.262494475000     0.145979375000     0.698238180000    -0.067291   
C113     C      0.052823970000     0.157206820000     0.995365620000    -0.07081    
C114     C      0.024754010000     0.116473630000     0.997183100000    -0.043658   
C115     C      0.467821100000     0.106915705000     0.977087200000    -0.05453    
C116     C      0.438315150000     0.138032110000     0.955438020000     0.003169   
C117     C      0.465596900000     0.178811180000     0.953935000000    -0.164613   
C118     C      0.022650335000     0.188443975000     0.973813200000     0.336924   
C119     C      0.277541965000     0.213429900000     0.582669420000     0.046072   
C120     C      0.271681130000     0.248122350000     0.610699410000    -0.056048   
C121     C      0.324580075000     0.265077400000     0.631479935000    -0.012642   
C122     C      0.383695700000     0.247783125000     0.624278470000    -0.046378   
C123     C      0.390043500000     0.213561200000     0.596208325000    -0.008952   
C124     C      0.337263880000     0.196460440000     0.575388625000    -0.068458   
C125     C      0.168134150000     0.179065250000     0.996891650000     0.013708   
C126     C      0.221606075000     0.192766590000     0.519207880000    -0.016095   
C127     C      0.221426370000     0.195056230000     0.560834335000    -0.036219   
C128     C      0.166868540000     0.181641755000     0.580658525000     0.080886   
C129     C      0.113221065000     0.168628275000     0.558509420000    -0.083569   
N130     N      0.212210535000     0.063273785000     0.857363500000    -0.145224   
N131     N      0.184261635000     0.277941100000     0.899490950000    -0.140071   
N132     N      0.178706825000     0.430502750000     0.868531400000    -0.08897    
N133     N      0.217764960000     0.410707150000     0.888323635000    -0.091414   
N134     N      0.164073540000     0.181650340000     0.622733950000    -0.089056   
N135     N      0.210933940000     0.164899230000     0.637711080000    -0.08551    
O136     O      0.014087675000     0.107603735000     0.911990350000    -0.195599   
O137     O      0.105757175000     0.159265130000     0.862680225000    -0.402901   
O138     O      0.289639600000     0.183605475000     0.896538050000    -0.352201   
O139     O      0.297342850000     0.150235550000     0.843125250000    -0.277616   
O140     O      0.098053930000     0.192635060000     0.916093000000    -0.629772   
O141     O      0.381298930000     0.235272700000     0.847228825000    -0.203076   
O142     O      0.265323670000     0.138990315000     0.821986650000    -0.68596    
O143     O      0.203602750000     0.209390650000     0.938003720000    -0.560745   
O144     O      0.187323985000     0.183808550000     0.829858550000    -0.479854   
O145     O      0.136902825000     0.154733700000     0.930586515000    -0.403907   
Zn0      Zn     0.161205010000     0.690888900000     0.412310630000     1.36779    
Zn1      Zn     0.234265940000     0.650762630000     0.346274020000     1.38268    
H2       H      0.469360400000     0.765628200000     0.337640075000     0.009555   
H3       H      0.049997270000     0.542816935000     0.454180630000     0.072608   
H4       H      0.393956850000     0.657548785000     0.275940925000     0.064518   
H5       H      0.417537780000     0.670015665000     0.205896435000     0.033738   
H6       H      0.018313945000     0.704537915000     0.188722520000     0.036614   
H7       H      0.095618425000     0.726839200000     0.242005885000     0.028538   
H8       H      0.072825730000     0.715217320000     0.311882675000     0.052459   
H9       H      0.001563670000     0.685237510000     0.483218450000    -0.151282   
H10      H      0.478060250000     0.672777310000     0.053274870000     0.044585   
H11      H      0.377240350000     0.638331190000     0.070504250000     0.036803   
H12      H      0.299808050000     0.616129800000     0.017271520000     0.04181    
H13      H      0.412098150000     0.796098085000     0.365597935000     0.018468   
H14      H      0.322519000000     0.627750485000     0.447375030000     0.046514   
H15      H      0.018965720000     0.597608945000     0.304780300000     0.065666   
H16      H      0.006201205000     0.529722415000     0.264418485000     0.026729   
H17      H      0.409679200000     0.985263050000     0.269634700000     0.044209   
H18      H      0.326217235000     0.508493015000     0.316189950000     0.036646   
H19      H      0.338389250000     0.575622595000     0.357144950000     0.046951   
H20      H      0.376320050000     0.745257540000     0.454338520000     0.058702   
H21      H      0.389024825000     0.813116850000     0.494746625000     0.032818   
H22      H      0.485589100000     0.857558600000     0.489668050000     0.039691   
H23      H      0.069149615000     0.834345350000     0.443190850000     0.040844   
H24      H      0.345588475000     0.799940550000     0.304784950000     0.08116    
H25      H      0.057038010000     0.767244700000     0.402184130000     0.042627   
H26      H      0.423984100000     0.820316525000     0.296966730000     0.064706   
H27      H      0.401005715000     0.767558750000     0.276711050000     0.079524   
H28      H      0.483125925000     0.546849220000     0.393484350000     0.01951    
H29      H      0.426060800000     0.577285140000     0.421688380000    -0.000814   
H30      H      0.494612550000     0.575013860000     0.482462315000     0.092883   
H31      H      0.471698100000     0.522323310000     0.462042950000     0.059655   
H32      H      0.110842595000     0.862932620000     0.363439470000     0.061836   
H33      H      0.285624625000     0.978282850000     0.393422450000     0.056979   
H34      H      0.104234920000     0.985112900000     0.335234225000     0.053749   
H35      H      0.292242250000     0.856101400000     0.421612830000     0.061267   
H36      H      0.121516490000     0.562296150000     0.330310150000     0.030523   
H37      H      0.274960300000     0.778913200000     0.426537425000     0.040308   
H38      H      0.096273465000     0.785139530000     0.370444900000     0.006421   
H39      H      0.300194085000     0.556080880000     0.386416525000     0.011406   
H40      H      0.136211100000     0.702868520000     0.263078600000     0.051649   
H41      H      0.128084825000     0.703274920000     0.190669450000     0.05224    
H42      H      0.071106515000     0.659781770000     0.074001610000     0.0543     
H43      H      0.306217300000     0.629653950000     0.252712280000     0.066258   
H44      H      0.297977450000     0.630155070000     0.180291950000     0.052007   
H45      H      0.047181985000     0.592128590000     0.013885450000     0.068324   
H46      H      0.446529865000     0.575393720000     0.478340270000     0.028917   
H47      H      0.394253970000     0.630601450000     0.439923465000     0.038915   
H48      H      0.263390200000     0.702916250000     0.004052500000     0.055115   
H49      H      0.442578750000     0.702949250000     0.437333225000     0.095632   
H50      H      0.043299305000     0.720179530000     0.472476185000    -0.023511   
H51      H      0.226207765000     0.761988950000     0.116456200000     0.050359   
H52      H      0.319740600000     0.791660950000     0.153147370000     0.030614   
H53      H      0.424590765000     0.760944000000     0.140398415000     0.037114   
H54      H      0.435866115000     0.700224850000     0.090632120000     0.027015   
H55      H      0.342822000000     0.669735030000     0.053930500000     0.058221   
C56      C      0.428421450000     0.666715965000     0.417333275000    -0.005523   
C57      C      0.436449000000     0.634906350000     0.356739650000    -0.013682   
C58      C      0.458939350000     0.707967490000     0.402467000000    -0.045927   
C59      C      0.417965530000     0.703454630000     0.364282050000     0.124116   
C60      C      0.477422835000     0.639419200000     0.394924650000     0.142161   
C61      C      0.387368770000     0.662497050000     0.379048615000    -0.081106   
C62      C      0.008023860000     0.680379110000     0.380161900000    -0.160121   
C63      C      0.418241680000     0.772003980000     0.340506650000     0.086808   
C64      C      0.395715300000     0.791128200000     0.302321075000    -0.192164   
C65      C      0.477155350000     0.570862540000     0.418671965000     0.109233   
C66      C      0.499867765000     0.551568880000     0.456753900000    -0.18174    
C67      C      0.482598720000     0.683876410000     0.299194800000     0.013201   
C68      C      0.438470930000     0.672235475000     0.268850800000    -0.047282   
C69      C      0.451550450000     0.679377975000     0.229137750000    -0.018279   
C70      C      0.008347690000     0.698792265000     0.219444260000    -0.040809   
C71      C      0.051979420000     0.711263465000     0.249476535000    -0.020984   
C72      C      0.039136410000     0.704059930000     0.289211200000    -0.040308   
C73      C      0.412833480000     0.659004820000     0.460016220000     0.015533   
C74      C      0.457030000000     0.670593990000     0.490336150000     0.113115   
C75      C      0.443994200000     0.663454980000     0.030055525000    -0.076438   
C76      C      0.387167335000     0.644089610000     0.039777515000    -0.049951   
C77      C      0.343466650000     0.631666300000     0.009771285000    -0.024704   
C78      C      0.356261100000     0.638870100000     0.470027985000    -0.070822   
C79      C      0.428177985000     0.593030790000     0.332519600000     0.047174   
C80      C      0.476215185000     0.578796870000     0.307089715000    -0.067688   
C81      C      0.469323575000     0.540225065000     0.284294130000     0.000607   
C82      C      0.414971600000     0.515135970000     0.287252725000    -0.051966   
C83      C      0.367822380000     0.528327320000     0.313378780000    -0.021893   
C84      C      0.374524265000     0.566906750000     0.336183520000    -0.043731   
C85      C      0.467174230000     0.749844685000     0.426697400000     0.029968   
C86      C      0.419083685000     0.764066750000     0.452082650000    -0.063334   
C87      C      0.425947050000     0.802621350000     0.474908000000    -0.011386   
C88      C      0.480324200000     0.827701150000     0.472025720000    -0.045898   
C89      C      0.027527390000     0.814519400000     0.445940750000    -0.021684   
C90      C      0.020848690000     0.775957020000     0.423105985000    -0.046215   
C91      C      0.074548065000     0.683788250000     0.383378050000     0.461933   
C92      C      0.320848825000     0.659082415000     0.375840215000     0.225968   
C93      C      0.466971800000     0.676158000000     0.341873765000     0.034416   
C94      C      0.257717300000     0.540146350000     0.374919750000     0.024508   
C95      C      0.138750435000     0.801068850000     0.381936250000     0.049158   
C96      C      0.249060690000     0.995829880000     0.379057650000    -0.078245   
C97      C      0.147406490000     0.845385580000     0.377804250000    -0.099257   
C98      C      0.192851690000     0.975111500000     0.364837750000     0.090312   
C99      C      0.203620060000     0.866098350000     0.392017275000     0.10792    
C100     C      0.147941560000     0.999744920000     0.346364915000    -0.073917   
C101     C      0.248531220000     0.841469550000     0.410483600000    -0.104733   
C102     C      0.158091650000     0.543648540000     0.343261650000     0.026115   
C103     C      0.238376700000     0.797566200000     0.413588315000     0.063967   
C104     C      0.225297735000     0.663484125000     0.306970715000     0.056109   
C105     C      0.112831270000     0.667526975000     0.016822415000     0.026078   
C106     C      0.167115120000     0.687007280000     0.203826740000    -0.063075   
C107     C      0.170408220000     0.680419860000     0.453223375000     0.042525   
C108     C      0.171884835000     0.687055975000     0.245298650000    -0.023374   
C109     C      0.212433470000     0.665969210000     0.179950030000     0.084675   
C110     C      0.221654670000     0.666133925000     0.263455035000     0.026394   
C111     C      0.267135000000     0.645892575000     0.239540620000    -0.017954   
C112     C      0.262494475000     0.645979375000     0.198238180000    -0.067291   
C113     C      0.052823970000     0.657206820000     0.495365620000    -0.07081    
C114     C      0.024754010000     0.616473630000     0.497183100000    -0.043658   
C115     C      0.467821100000     0.606915705000     0.477087200000    -0.05453    
C116     C      0.438315150000     0.638032110000     0.455438020000     0.003169   
C117     C      0.465596900000     0.678811180000     0.453935000000    -0.164613   
C118     C      0.022650335000     0.688443975000     0.473813200000     0.336924   
C119     C      0.277541965000     0.713429900000     0.082669420000     0.046072   
C120     C      0.271681130000     0.748122350000     0.110699410000    -0.056048   
C121     C      0.324580075000     0.765077400000     0.131479935000    -0.012642   
C122     C      0.383695700000     0.747783125000     0.124278470000    -0.046378   
C123     C      0.390043500000     0.713561200000     0.096208325000    -0.008952   
C124     C      0.337263880000     0.696460440000     0.075388625000    -0.068458   
C125     C      0.168134150000     0.679065250000     0.496891650000     0.013708   
C126     C      0.221606075000     0.692766590000     0.019207880000    -0.016095   
C127     C      0.221426370000     0.695056230000     0.060834335000    -0.036219   
C128     C      0.166868540000     0.681641755000     0.080658525000     0.080886   
C129     C      0.113221065000     0.668628275000     0.058509420000    -0.083569   
N130     N      0.212210535000     0.563273785000     0.357363500000    -0.145224   
N131     N      0.184261635000     0.777941100000     0.399490950000    -0.140071   
N132     N      0.178706825000     0.930502750000     0.368531400000    -0.08897    
N133     N      0.217764960000     0.910707150000     0.388323635000    -0.091414   
N134     N      0.164073540000     0.681650340000     0.122733950000    -0.089056   
N135     N      0.210933940000     0.664899230000     0.137711080000    -0.08551    
O136     O      0.014087675000     0.607603735000     0.411990350000    -0.195599   
O137     O      0.105757175000     0.659265130000     0.362680225000    -0.402901   
O138     O      0.289639600000     0.683605475000     0.396538050000    -0.352201   
O139     O      0.297342850000     0.650235550000     0.343125250000    -0.277616   
O140     O      0.098053930000     0.692635060000     0.416093000000    -0.629772   
O141     O      0.381298930000     0.735272700000     0.347228825000    -0.203076   
O142     O      0.265323670000     0.638990315000     0.321986650000    -0.68596    
O143     O      0.203602750000     0.709390650000     0.438003720000    -0.560745   
O144     O      0.187323985000     0.683808550000     0.329858550000    -0.479854   
O145     O      0.136902825000     0.654733700000     0.430586515000    -0.403907   
Zn0      Zn     0.161205010000     0.690888900000     0.912310630000     1.36779    
Zn1      Zn     0.234265940000     0.650762630000     0.846274020000     1.38268    
H2       H      0.469360400000     0.765628200000     0.837640075000     0.009555   
H3       H      0.049997270000     0.542816935000     0.954180630000     0.072608   
H4       H      0.393956850000     0.657548785000     0.775940925000     0.064518   
H5       H      0.417537780000     0.670015665000     0.705896435000     0.033738   
H6       H      0.018313945000     0.704537915000     0.688722520000     0.036614   
H7       H      0.095618425000     0.726839200000     0.742005885000     0.028538   
H8       H      0.072825730000     0.715217320000     0.811882675000     0.052459   
H9       H      0.001563670000     0.685237510000     0.983218450000    -0.151282   
H10      H      0.478060250000     0.672777310000     0.553274870000     0.044585   
H11      H      0.377240350000     0.638331190000     0.570504250000     0.036803   
H12      H      0.299808050000     0.616129800000     0.517271520000     0.04181    
H13      H      0.412098150000     0.796098085000     0.865597935000     0.018468   
H14      H      0.322519000000     0.627750485000     0.947375030000     0.046514   
H15      H      0.018965720000     0.597608945000     0.804780300000     0.065666   
H16      H      0.006201205000     0.529722415000     0.764418485000     0.026729   
H17      H      0.409679200000     0.985263050000     0.769634700000     0.044209   
H18      H      0.326217235000     0.508493015000     0.816189950000     0.036646   
H19      H      0.338389250000     0.575622595000     0.857144950000     0.046951   
H20      H      0.376320050000     0.745257540000     0.954338520000     0.058702   
H21      H      0.389024825000     0.813116850000     0.994746625000     0.032818   
H22      H      0.485589100000     0.857558600000     0.989668050000     0.039691   
H23      H      0.069149615000     0.834345350000     0.943190850000     0.040844   
H24      H      0.345588475000     0.799940550000     0.804784950000     0.08116    
H25      H      0.057038010000     0.767244700000     0.902184130000     0.042627   
H26      H      0.423984100000     0.820316525000     0.796966730000     0.064706   
H27      H      0.401005715000     0.767558750000     0.776711050000     0.079524   
H28      H      0.483125925000     0.546849220000     0.893484350000     0.01951    
H29      H      0.426060800000     0.577285140000     0.921688380000    -0.000814   
H30      H      0.494612550000     0.575013860000     0.982462315000     0.092883   
H31      H      0.471698100000     0.522323310000     0.962042950000     0.059655   
H32      H      0.110842595000     0.862932620000     0.863439470000     0.061836   
H33      H      0.285624625000     0.978282850000     0.893422450000     0.056979   
H34      H      0.104234920000     0.985112900000     0.835234225000     0.053749   
H35      H      0.292242250000     0.856101400000     0.921612830000     0.061267   
H36      H      0.121516490000     0.562296150000     0.830310150000     0.030523   
H37      H      0.274960300000     0.778913200000     0.926537425000     0.040308   
H38      H      0.096273465000     0.785139530000     0.870444900000     0.006421   
H39      H      0.300194085000     0.556080880000     0.886416525000     0.011406   
H40      H      0.136211100000     0.702868520000     0.763078600000     0.051649   
H41      H      0.128084825000     0.703274920000     0.690669450000     0.05224    
H42      H      0.071106515000     0.659781770000     0.574001610000     0.0543     
H43      H      0.306217300000     0.629653950000     0.752712280000     0.066258   
H44      H      0.297977450000     0.630155070000     0.680291950000     0.052007   
H45      H      0.047181985000     0.592128590000     0.513885450000     0.068324   
H46      H      0.446529865000     0.575393720000     0.978340270000     0.028917   
H47      H      0.394253970000     0.630601450000     0.939923465000     0.038915   
H48      H      0.263390200000     0.702916250000     0.504052500000     0.055115   
H49      H      0.442578750000     0.702949250000     0.937333225000     0.095632   
H50      H      0.043299305000     0.720179530000     0.972476185000    -0.023511   
H51      H      0.226207765000     0.761988950000     0.616456200000     0.050359   
H52      H      0.319740600000     0.791660950000     0.653147370000     0.030614   
H53      H      0.424590765000     0.760944000000     0.640398415000     0.037114   
H54      H      0.435866115000     0.700224850000     0.590632120000     0.027015   
H55      H      0.342822000000     0.669735030000     0.553930500000     0.058221   
C56      C      0.428421450000     0.666715965000     0.917333275000    -0.005523   
C57      C      0.436449000000     0.634906350000     0.856739650000    -0.013682   
C58      C      0.458939350000     0.707967490000     0.902467000000    -0.045927   
C59      C      0.417965530000     0.703454630000     0.864282050000     0.124116   
C60      C      0.477422835000     0.639419200000     0.894924650000     0.142161   
C61      C      0.387368770000     0.662497050000     0.879048615000    -0.081106   
C62      C      0.008023860000     0.680379110000     0.880161900000    -0.160121   
C63      C      0.418241680000     0.772003980000     0.840506650000     0.086808   
C64      C      0.395715300000     0.791128200000     0.802321075000    -0.192164   
C65      C      0.477155350000     0.570862540000     0.918671965000     0.109233   
C66      C      0.499867765000     0.551568880000     0.956753900000    -0.18174    
C67      C      0.482598720000     0.683876410000     0.799194800000     0.013201   
C68      C      0.438470930000     0.672235475000     0.768850800000    -0.047282   
C69      C      0.451550450000     0.679377975000     0.729137750000    -0.018279   
C70      C      0.008347690000     0.698792265000     0.719444260000    -0.040809   
C71      C      0.051979420000     0.711263465000     0.749476535000    -0.020984   
C72      C      0.039136410000     0.704059930000     0.789211200000    -0.040308   
C73      C      0.412833480000     0.659004820000     0.960016220000     0.015533   
C74      C      0.457030000000     0.670593990000     0.990336150000     0.113115   
C75      C      0.443994200000     0.663454980000     0.530055525000    -0.076438   
C76      C      0.387167335000     0.644089610000     0.539777515000    -0.049951   
C77      C      0.343466650000     0.631666300000     0.509771285000    -0.024704   
C78      C      0.356261100000     0.638870100000     0.970027985000    -0.070822   
C79      C      0.428177985000     0.593030790000     0.832519600000     0.047174   
C80      C      0.476215185000     0.578796870000     0.807089715000    -0.067688   
C81      C      0.469323575000     0.540225065000     0.784294130000     0.000607   
C82      C      0.414971600000     0.515135970000     0.787252725000    -0.051966   
C83      C      0.367822380000     0.528327320000     0.813378780000    -0.021893   
C84      C      0.374524265000     0.566906750000     0.836183520000    -0.043731   
C85      C      0.467174230000     0.749844685000     0.926697400000     0.029968   
C86      C      0.419083685000     0.764066750000     0.952082650000    -0.063334   
C87      C      0.425947050000     0.802621350000     0.974908000000    -0.011386   
C88      C      0.480324200000     0.827701150000     0.972025720000    -0.045898   
C89      C      0.027527390000     0.814519400000     0.945940750000    -0.021684   
C90      C      0.020848690000     0.775957020000     0.923105985000    -0.046215   
C91      C      0.074548065000     0.683788250000     0.883378050000     0.461933   
C92      C      0.320848825000     0.659082415000     0.875840215000     0.225968   
C93      C      0.466971800000     0.676158000000     0.841873765000     0.034416   
C94      C      0.257717300000     0.540146350000     0.874919750000     0.024508   
C95      C      0.138750435000     0.801068850000     0.881936250000     0.049158   
C96      C      0.249060690000     0.995829880000     0.879057650000    -0.078245   
C97      C      0.147406490000     0.845385580000     0.877804250000    -0.099257   
C98      C      0.192851690000     0.975111500000     0.864837750000     0.090312   
C99      C      0.203620060000     0.866098350000     0.892017275000     0.10792    
C100     C      0.147941560000     0.999744920000     0.846364915000    -0.073917   
C101     C      0.248531220000     0.841469550000     0.910483600000    -0.104733   
C102     C      0.158091650000     0.543648540000     0.843261650000     0.026115   
C103     C      0.238376700000     0.797566200000     0.913588315000     0.063967   
C104     C      0.225297735000     0.663484125000     0.806970715000     0.056109   
C105     C      0.112831270000     0.667526975000     0.516822415000     0.026078   
C106     C      0.167115120000     0.687007280000     0.703826740000    -0.063075   
C107     C      0.170408220000     0.680419860000     0.953223375000     0.042525   
C108     C      0.171884835000     0.687055975000     0.745298650000    -0.023374   
C109     C      0.212433470000     0.665969210000     0.679950030000     0.084675   
C110     C      0.221654670000     0.666133925000     0.763455035000     0.026394   
C111     C      0.267135000000     0.645892575000     0.739540620000    -0.017954   
C112     C      0.262494475000     0.645979375000     0.698238180000    -0.067291   
C113     C      0.052823970000     0.657206820000     0.995365620000    -0.07081    
C114     C      0.024754010000     0.616473630000     0.997183100000    -0.043658   
C115     C      0.467821100000     0.606915705000     0.977087200000    -0.05453    
C116     C      0.438315150000     0.638032110000     0.955438020000     0.003169   
C117     C      0.465596900000     0.678811180000     0.953935000000    -0.164613   
C118     C      0.022650335000     0.688443975000     0.973813200000     0.336924   
C119     C      0.277541965000     0.713429900000     0.582669420000     0.046072   
C120     C      0.271681130000     0.748122350000     0.610699410000    -0.056048   
C121     C      0.324580075000     0.765077400000     0.631479935000    -0.012642   
C122     C      0.383695700000     0.747783125000     0.624278470000    -0.046378   
C123     C      0.390043500000     0.713561200000     0.596208325000    -0.008952   
C124     C      0.337263880000     0.696460440000     0.575388625000    -0.068458   
C125     C      0.168134150000     0.679065250000     0.996891650000     0.013708   
C126     C      0.221606075000     0.692766590000     0.519207880000    -0.016095   
C127     C      0.221426370000     0.695056230000     0.560834335000    -0.036219   
C128     C      0.166868540000     0.681641755000     0.580658525000     0.080886   
C129     C      0.113221065000     0.668628275000     0.558509420000    -0.083569   
N130     N      0.212210535000     0.563273785000     0.857363500000    -0.145224   
N131     N      0.184261635000     0.777941100000     0.899490950000    -0.140071   
N132     N      0.178706825000     0.930502750000     0.868531400000    -0.08897    
N133     N      0.217764960000     0.910707150000     0.888323635000    -0.091414   
N134     N      0.164073540000     0.681650340000     0.622733950000    -0.089056   
N135     N      0.210933940000     0.664899230000     0.637711080000    -0.08551    
O136     O      0.014087675000     0.607603735000     0.911990350000    -0.195599   
O137     O      0.105757175000     0.659265130000     0.862680225000    -0.402901   
O138     O      0.289639600000     0.683605475000     0.896538050000    -0.352201   
O139     O      0.297342850000     0.650235550000     0.843125250000    -0.277616   
O140     O      0.098053930000     0.692635060000     0.916093000000    -0.629772   
O141     O      0.381298930000     0.735272700000     0.847228825000    -0.203076   
O142     O      0.265323670000     0.638990315000     0.821986650000    -0.68596    
O143     O      0.203602750000     0.709390650000     0.938003720000    -0.560745   
O144     O      0.187323985000     0.683808550000     0.829858550000    -0.479854   
O145     O      0.136902825000     0.654733700000     0.930586515000    -0.403907   
Zn0      Zn     0.661205010000     0.190888900000     0.412310630000     1.36779    
Zn1      Zn     0.734265940000     0.150762630000     0.346274020000     1.38268    
H2       H      0.969360400000     0.265628200000     0.337640075000     0.009555   
H3       H      0.549997270000     0.042816935000     0.454180630000     0.072608   
H4       H      0.893956850000     0.157548785000     0.275940925000     0.064518   
H5       H      0.917537780000     0.170015665000     0.205896435000     0.033738   
H6       H      0.518313945000     0.204537915000     0.188722520000     0.036614   
H7       H      0.595618425000     0.226839200000     0.242005885000     0.028538   
H8       H      0.572825730000     0.215217320000     0.311882675000     0.052459   
H9       H      0.501563670000     0.185237510000     0.483218450000    -0.151282   
H10      H      0.978060250000     0.172777310000     0.053274870000     0.044585   
H11      H      0.877240350000     0.138331190000     0.070504250000     0.036803   
H12      H      0.799808050000     0.116129800000     0.017271520000     0.04181    
H13      H      0.912098150000     0.296098085000     0.365597935000     0.018468   
H14      H      0.822519000000     0.127750485000     0.447375030000     0.046514   
H15      H      0.518965720000     0.097608945000     0.304780300000     0.065666   
H16      H      0.506201205000     0.029722415000     0.264418485000     0.026729   
H17      H      0.909679200000     0.485263050000     0.269634700000     0.044209   
H18      H      0.826217235000     0.008493015000     0.316189950000     0.036646   
H19      H      0.838389250000     0.075622595000     0.357144950000     0.046951   
H20      H      0.876320050000     0.245257540000     0.454338520000     0.058702   
H21      H      0.889024825000     0.313116850000     0.494746625000     0.032818   
H22      H      0.985589100000     0.357558600000     0.489668050000     0.039691   
H23      H      0.569149615000     0.334345350000     0.443190850000     0.040844   
H24      H      0.845588475000     0.299940550000     0.304784950000     0.08116    
H25      H      0.557038010000     0.267244700000     0.402184130000     0.042627   
H26      H      0.923984100000     0.320316525000     0.296966730000     0.064706   
H27      H      0.901005715000     0.267558750000     0.276711050000     0.079524   
H28      H      0.983125925000     0.046849220000     0.393484350000     0.01951    
H29      H      0.926060800000     0.077285140000     0.421688380000    -0.000814   
H30      H      0.994612550000     0.075013860000     0.482462315000     0.092883   
H31      H      0.971698100000     0.022323310000     0.462042950000     0.059655   
H32      H      0.610842595000     0.362932620000     0.363439470000     0.061836   
H33      H      0.785624625000     0.478282850000     0.393422450000     0.056979   
H34      H      0.604234920000     0.485112900000     0.335234225000     0.053749   
H35      H      0.792242250000     0.356101400000     0.421612830000     0.061267   
H36      H      0.621516490000     0.062296150000     0.330310150000     0.030523   
H37      H      0.774960300000     0.278913200000     0.426537425000     0.040308   
H38      H      0.596273465000     0.285139530000     0.370444900000     0.006421   
H39      H      0.800194085000     0.056080880000     0.386416525000     0.011406   
H40      H      0.636211100000     0.202868520000     0.263078600000     0.051649   
H41      H      0.628084825000     0.203274920000     0.190669450000     0.05224    
H42      H      0.571106515000     0.159781770000     0.074001610000     0.0543     
H43      H      0.806217300000     0.129653950000     0.252712280000     0.066258   
H44      H      0.797977450000     0.130155070000     0.180291950000     0.052007   
H45      H      0.547181985000     0.092128590000     0.013885450000     0.068324   
H46      H      0.946529865000     0.075393720000     0.478340270000     0.028917   
H47      H      0.894253970000     0.130601450000     0.439923465000     0.038915   
H48      H      0.763390200000     0.202916250000     0.004052500000     0.055115   
H49      H      0.942578750000     0.202949250000     0.437333225000     0.095632   
H50      H      0.543299305000     0.220179530000     0.472476185000    -0.023511   
H51      H      0.726207765000     0.261988950000     0.116456200000     0.050359   
H52      H      0.819740600000     0.291660950000     0.153147370000     0.030614   
H53      H      0.924590765000     0.260944000000     0.140398415000     0.037114   
H54      H      0.935866115000     0.200224850000     0.090632120000     0.027015   
H55      H      0.842822000000     0.169735030000     0.053930500000     0.058221   
C56      C      0.928421450000     0.166715965000     0.417333275000    -0.005523   
C57      C      0.936449000000     0.134906350000     0.356739650000    -0.013682   
C58      C      0.958939350000     0.207967490000     0.402467000000    -0.045927   
C59      C      0.917965530000     0.203454630000     0.364282050000     0.124116   
C60      C      0.977422835000     0.139419200000     0.394924650000     0.142161   
C61      C      0.887368770000     0.162497050000     0.379048615000    -0.081106   
C62      C      0.508023860000     0.180379110000     0.380161900000    -0.160121   
C63      C      0.918241680000     0.272003980000     0.340506650000     0.086808   
C64      C      0.895715300000     0.291128200000     0.302321075000    -0.192164   
C65      C      0.977155350000     0.070862540000     0.418671965000     0.109233   
C66      C      0.999867765000     0.051568880000     0.456753900000    -0.18174    
C67      C      0.982598720000     0.183876410000     0.299194800000     0.013201   
C68      C      0.938470930000     0.172235475000     0.268850800000    -0.047282   
C69      C      0.951550450000     0.179377975000     0.229137750000    -0.018279   
C70      C      0.508347690000     0.198792265000     0.219444260000    -0.040809   
C71      C      0.551979420000     0.211263465000     0.249476535000    -0.020984   
C72      C      0.539136410000     0.204059930000     0.289211200000    -0.040308   
C73      C      0.912833480000     0.159004820000     0.460016220000     0.015533   
C74      C      0.957030000000     0.170593990000     0.490336150000     0.113115   
C75      C      0.943994200000     0.163454980000     0.030055525000    -0.076438   
C76      C      0.887167335000     0.144089610000     0.039777515000    -0.049951   
C77      C      0.843466650000     0.131666300000     0.009771285000    -0.024704   
C78      C      0.856261100000     0.138870100000     0.470027985000    -0.070822   
C79      C      0.928177985000     0.093030790000     0.332519600000     0.047174   
C80      C      0.976215185000     0.078796870000     0.307089715000    -0.067688   
C81      C      0.969323575000     0.040225065000     0.284294130000     0.000607   
C82      C      0.914971600000     0.015135970000     0.287252725000    -0.051966   
C83      C      0.867822380000     0.028327320000     0.313378780000    -0.021893   
C84      C      0.874524265000     0.066906750000     0.336183520000    -0.043731   
C85      C      0.967174230000     0.249844685000     0.426697400000     0.029968   
C86      C      0.919083685000     0.264066750000     0.452082650000    -0.063334   
C87      C      0.925947050000     0.302621350000     0.474908000000    -0.011386   
C88      C      0.980324200000     0.327701150000     0.472025720000    -0.045898   
C89      C      0.527527390000     0.314519400000     0.445940750000    -0.021684   
C90      C      0.520848690000     0.275957020000     0.423105985000    -0.046215   
C91      C      0.574548065000     0.183788250000     0.383378050000     0.461933   
C92      C      0.820848825000     0.159082415000     0.375840215000     0.225968   
C93      C      0.966971800000     0.176158000000     0.341873765000     0.034416   
C94      C      0.757717300000     0.040146350000     0.374919750000     0.024508   
C95      C      0.638750435000     0.301068850000     0.381936250000     0.049158   
C96      C      0.749060690000     0.495829880000     0.379057650000    -0.078245   
C97      C      0.647406490000     0.345385580000     0.377804250000    -0.099257   
C98      C      0.692851690000     0.475111500000     0.364837750000     0.090312   
C99      C      0.703620060000     0.366098350000     0.392017275000     0.10792    
C100     C      0.647941560000     0.499744920000     0.346364915000    -0.073917   
C101     C      0.748531220000     0.341469550000     0.410483600000    -0.104733   
C102     C      0.658091650000     0.043648540000     0.343261650000     0.026115   
C103     C      0.738376700000     0.297566200000     0.413588315000     0.063967   
C104     C      0.725297735000     0.163484125000     0.306970715000     0.056109   
C105     C      0.612831270000     0.167526975000     0.016822415000     0.026078   
C106     C      0.667115120000     0.187007280000     0.203826740000    -0.063075   
C107     C      0.670408220000     0.180419860000     0.453223375000     0.042525   
C108     C      0.671884835000     0.187055975000     0.245298650000    -0.023374   
C109     C      0.712433470000     0.165969210000     0.179950030000     0.084675   
C110     C      0.721654670000     0.166133925000     0.263455035000     0.026394   
C111     C      0.767135000000     0.145892575000     0.239540620000    -0.017954   
C112     C      0.762494475000     0.145979375000     0.198238180000    -0.067291   
C113     C      0.552823970000     0.157206820000     0.495365620000    -0.07081    
C114     C      0.524754010000     0.116473630000     0.497183100000    -0.043658   
C115     C      0.967821100000     0.106915705000     0.477087200000    -0.05453    
C116     C      0.938315150000     0.138032110000     0.455438020000     0.003169   
C117     C      0.965596900000     0.178811180000     0.453935000000    -0.164613   
C118     C      0.522650335000     0.188443975000     0.473813200000     0.336924   
C119     C      0.777541965000     0.213429900000     0.082669420000     0.046072   
C120     C      0.771681130000     0.248122350000     0.110699410000    -0.056048   
C121     C      0.824580075000     0.265077400000     0.131479935000    -0.012642   
C122     C      0.883695700000     0.247783125000     0.124278470000    -0.046378   
C123     C      0.890043500000     0.213561200000     0.096208325000    -0.008952   
C124     C      0.837263880000     0.196460440000     0.075388625000    -0.068458   
C125     C      0.668134150000     0.179065250000     0.496891650000     0.013708   
C126     C      0.721606075000     0.192766590000     0.019207880000    -0.016095   
C127     C      0.721426370000     0.195056230000     0.060834335000    -0.036219   
C128     C      0.666868540000     0.181641755000     0.080658525000     0.080886   
C129     C      0.613221065000     0.168628275000     0.058509420000    -0.083569   
N130     N      0.712210535000     0.063273785000     0.357363500000    -0.145224   
N131     N      0.684261635000     0.277941100000     0.399490950000    -0.140071   
N132     N      0.678706825000     0.430502750000     0.368531400000    -0.08897    
N133     N      0.717764960000     0.410707150000     0.388323635000    -0.091414   
N134     N      0.664073540000     0.181650340000     0.122733950000    -0.089056   
N135     N      0.710933940000     0.164899230000     0.137711080000    -0.08551    
O136     O      0.514087675000     0.107603735000     0.411990350000    -0.195599   
O137     O      0.605757175000     0.159265130000     0.362680225000    -0.402901   
O138     O      0.789639600000     0.183605475000     0.396538050000    -0.352201   
O139     O      0.797342850000     0.150235550000     0.343125250000    -0.277616   
O140     O      0.598053930000     0.192635060000     0.416093000000    -0.629772   
O141     O      0.881298930000     0.235272700000     0.347228825000    -0.203076   
O142     O      0.765323670000     0.138990315000     0.321986650000    -0.68596    
O143     O      0.703602750000     0.209390650000     0.438003720000    -0.560745   
O144     O      0.687323985000     0.183808550000     0.329858550000    -0.479854   
O145     O      0.636902825000     0.154733700000     0.430586515000    -0.403907   
Zn0      Zn     0.661205010000     0.190888900000     0.912310630000     1.36779    
Zn1      Zn     0.734265940000     0.150762630000     0.846274020000     1.38268    
H2       H      0.969360400000     0.265628200000     0.837640075000     0.009555   
H3       H      0.549997270000     0.042816935000     0.954180630000     0.072608   
H4       H      0.893956850000     0.157548785000     0.775940925000     0.064518   
H5       H      0.917537780000     0.170015665000     0.705896435000     0.033738   
H6       H      0.518313945000     0.204537915000     0.688722520000     0.036614   
H7       H      0.595618425000     0.226839200000     0.742005885000     0.028538   
H8       H      0.572825730000     0.215217320000     0.811882675000     0.052459   
H9       H      0.501563670000     0.185237510000     0.983218450000    -0.151282   
H10      H      0.978060250000     0.172777310000     0.553274870000     0.044585   
H11      H      0.877240350000     0.138331190000     0.570504250000     0.036803   
H12      H      0.799808050000     0.116129800000     0.517271520000     0.04181    
H13      H      0.912098150000     0.296098085000     0.865597935000     0.018468   
H14      H      0.822519000000     0.127750485000     0.947375030000     0.046514   
H15      H      0.518965720000     0.097608945000     0.804780300000     0.065666   
H16      H      0.506201205000     0.029722415000     0.764418485000     0.026729   
H17      H      0.909679200000     0.485263050000     0.769634700000     0.044209   
H18      H      0.826217235000     0.008493015000     0.816189950000     0.036646   
H19      H      0.838389250000     0.075622595000     0.857144950000     0.046951   
H20      H      0.876320050000     0.245257540000     0.954338520000     0.058702   
H21      H      0.889024825000     0.313116850000     0.994746625000     0.032818   
H22      H      0.985589100000     0.357558600000     0.989668050000     0.039691   
H23      H      0.569149615000     0.334345350000     0.943190850000     0.040844   
H24      H      0.845588475000     0.299940550000     0.804784950000     0.08116    
H25      H      0.557038010000     0.267244700000     0.902184130000     0.042627   
H26      H      0.923984100000     0.320316525000     0.796966730000     0.064706   
H27      H      0.901005715000     0.267558750000     0.776711050000     0.079524   
H28      H      0.983125925000     0.046849220000     0.893484350000     0.01951    
H29      H      0.926060800000     0.077285140000     0.921688380000    -0.000814   
H30      H      0.994612550000     0.075013860000     0.982462315000     0.092883   
H31      H      0.971698100000     0.022323310000     0.962042950000     0.059655   
H32      H      0.610842595000     0.362932620000     0.863439470000     0.061836   
H33      H      0.785624625000     0.478282850000     0.893422450000     0.056979   
H34      H      0.604234920000     0.485112900000     0.835234225000     0.053749   
H35      H      0.792242250000     0.356101400000     0.921612830000     0.061267   
H36      H      0.621516490000     0.062296150000     0.830310150000     0.030523   
H37      H      0.774960300000     0.278913200000     0.926537425000     0.040308   
H38      H      0.596273465000     0.285139530000     0.870444900000     0.006421   
H39      H      0.800194085000     0.056080880000     0.886416525000     0.011406   
H40      H      0.636211100000     0.202868520000     0.763078600000     0.051649   
H41      H      0.628084825000     0.203274920000     0.690669450000     0.05224    
H42      H      0.571106515000     0.159781770000     0.574001610000     0.0543     
H43      H      0.806217300000     0.129653950000     0.752712280000     0.066258   
H44      H      0.797977450000     0.130155070000     0.680291950000     0.052007   
H45      H      0.547181985000     0.092128590000     0.513885450000     0.068324   
H46      H      0.946529865000     0.075393720000     0.978340270000     0.028917   
H47      H      0.894253970000     0.130601450000     0.939923465000     0.038915   
H48      H      0.763390200000     0.202916250000     0.504052500000     0.055115   
H49      H      0.942578750000     0.202949250000     0.937333225000     0.095632   
H50      H      0.543299305000     0.220179530000     0.972476185000    -0.023511   
H51      H      0.726207765000     0.261988950000     0.616456200000     0.050359   
H52      H      0.819740600000     0.291660950000     0.653147370000     0.030614   
H53      H      0.924590765000     0.260944000000     0.640398415000     0.037114   
H54      H      0.935866115000     0.200224850000     0.590632120000     0.027015   
H55      H      0.842822000000     0.169735030000     0.553930500000     0.058221   
C56      C      0.928421450000     0.166715965000     0.917333275000    -0.005523   
C57      C      0.936449000000     0.134906350000     0.856739650000    -0.013682   
C58      C      0.958939350000     0.207967490000     0.902467000000    -0.045927   
C59      C      0.917965530000     0.203454630000     0.864282050000     0.124116   
C60      C      0.977422835000     0.139419200000     0.894924650000     0.142161   
C61      C      0.887368770000     0.162497050000     0.879048615000    -0.081106   
C62      C      0.508023860000     0.180379110000     0.880161900000    -0.160121   
C63      C      0.918241680000     0.272003980000     0.840506650000     0.086808   
C64      C      0.895715300000     0.291128200000     0.802321075000    -0.192164   
C65      C      0.977155350000     0.070862540000     0.918671965000     0.109233   
C66      C      0.999867765000     0.051568880000     0.956753900000    -0.18174    
C67      C      0.982598720000     0.183876410000     0.799194800000     0.013201   
C68      C      0.938470930000     0.172235475000     0.768850800000    -0.047282   
C69      C      0.951550450000     0.179377975000     0.729137750000    -0.018279   
C70      C      0.508347690000     0.198792265000     0.719444260000    -0.040809   
C71      C      0.551979420000     0.211263465000     0.749476535000    -0.020984   
C72      C      0.539136410000     0.204059930000     0.789211200000    -0.040308   
C73      C      0.912833480000     0.159004820000     0.960016220000     0.015533   
C74      C      0.957030000000     0.170593990000     0.990336150000     0.113115   
C75      C      0.943994200000     0.163454980000     0.530055525000    -0.076438   
C76      C      0.887167335000     0.144089610000     0.539777515000    -0.049951   
C77      C      0.843466650000     0.131666300000     0.509771285000    -0.024704   
C78      C      0.856261100000     0.138870100000     0.970027985000    -0.070822   
C79      C      0.928177985000     0.093030790000     0.832519600000     0.047174   
C80      C      0.976215185000     0.078796870000     0.807089715000    -0.067688   
C81      C      0.969323575000     0.040225065000     0.784294130000     0.000607   
C82      C      0.914971600000     0.015135970000     0.787252725000    -0.051966   
C83      C      0.867822380000     0.028327320000     0.813378780000    -0.021893   
C84      C      0.874524265000     0.066906750000     0.836183520000    -0.043731   
C85      C      0.967174230000     0.249844685000     0.926697400000     0.029968   
C86      C      0.919083685000     0.264066750000     0.952082650000    -0.063334   
C87      C      0.925947050000     0.302621350000     0.974908000000    -0.011386   
C88      C      0.980324200000     0.327701150000     0.972025720000    -0.045898   
C89      C      0.527527390000     0.314519400000     0.945940750000    -0.021684   
C90      C      0.520848690000     0.275957020000     0.923105985000    -0.046215   
C91      C      0.574548065000     0.183788250000     0.883378050000     0.461933   
C92      C      0.820848825000     0.159082415000     0.875840215000     0.225968   
C93      C      0.966971800000     0.176158000000     0.841873765000     0.034416   
C94      C      0.757717300000     0.040146350000     0.874919750000     0.024508   
C95      C      0.638750435000     0.301068850000     0.881936250000     0.049158   
C96      C      0.749060690000     0.495829880000     0.879057650000    -0.078245   
C97      C      0.647406490000     0.345385580000     0.877804250000    -0.099257   
C98      C      0.692851690000     0.475111500000     0.864837750000     0.090312   
C99      C      0.703620060000     0.366098350000     0.892017275000     0.10792    
C100     C      0.647941560000     0.499744920000     0.846364915000    -0.073917   
C101     C      0.748531220000     0.341469550000     0.910483600000    -0.104733   
C102     C      0.658091650000     0.043648540000     0.843261650000     0.026115   
C103     C      0.738376700000     0.297566200000     0.913588315000     0.063967   
C104     C      0.725297735000     0.163484125000     0.806970715000     0.056109   
C105     C      0.612831270000     0.167526975000     0.516822415000     0.026078   
C106     C      0.667115120000     0.187007280000     0.703826740000    -0.063075   
C107     C      0.670408220000     0.180419860000     0.953223375000     0.042525   
C108     C      0.671884835000     0.187055975000     0.745298650000    -0.023374   
C109     C      0.712433470000     0.165969210000     0.679950030000     0.084675   
C110     C      0.721654670000     0.166133925000     0.763455035000     0.026394   
C111     C      0.767135000000     0.145892575000     0.739540620000    -0.017954   
C112     C      0.762494475000     0.145979375000     0.698238180000    -0.067291   
C113     C      0.552823970000     0.157206820000     0.995365620000    -0.07081    
C114     C      0.524754010000     0.116473630000     0.997183100000    -0.043658   
C115     C      0.967821100000     0.106915705000     0.977087200000    -0.05453    
C116     C      0.938315150000     0.138032110000     0.955438020000     0.003169   
C117     C      0.965596900000     0.178811180000     0.953935000000    -0.164613   
C118     C      0.522650335000     0.188443975000     0.973813200000     0.336924   
C119     C      0.777541965000     0.213429900000     0.582669420000     0.046072   
C120     C      0.771681130000     0.248122350000     0.610699410000    -0.056048   
C121     C      0.824580075000     0.265077400000     0.631479935000    -0.012642   
C122     C      0.883695700000     0.247783125000     0.624278470000    -0.046378   
C123     C      0.890043500000     0.213561200000     0.596208325000    -0.008952   
C124     C      0.837263880000     0.196460440000     0.575388625000    -0.068458   
C125     C      0.668134150000     0.179065250000     0.996891650000     0.013708   
C126     C      0.721606075000     0.192766590000     0.519207880000    -0.016095   
C127     C      0.721426370000     0.195056230000     0.560834335000    -0.036219   
C128     C      0.666868540000     0.181641755000     0.580658525000     0.080886   
C129     C      0.613221065000     0.168628275000     0.558509420000    -0.083569   
N130     N      0.712210535000     0.063273785000     0.857363500000    -0.145224   
N131     N      0.684261635000     0.277941100000     0.899490950000    -0.140071   
N132     N      0.678706825000     0.430502750000     0.868531400000    -0.08897    
N133     N      0.717764960000     0.410707150000     0.888323635000    -0.091414   
N134     N      0.664073540000     0.181650340000     0.622733950000    -0.089056   
N135     N      0.710933940000     0.164899230000     0.637711080000    -0.08551    
O136     O      0.514087675000     0.107603735000     0.911990350000    -0.195599   
O137     O      0.605757175000     0.159265130000     0.862680225000    -0.402901   
O138     O      0.789639600000     0.183605475000     0.896538050000    -0.352201   
O139     O      0.797342850000     0.150235550000     0.843125250000    -0.277616   
O140     O      0.598053930000     0.192635060000     0.916093000000    -0.629772   
O141     O      0.881298930000     0.235272700000     0.847228825000    -0.203076   
O142     O      0.765323670000     0.138990315000     0.821986650000    -0.68596    
O143     O      0.703602750000     0.209390650000     0.938003720000    -0.560745   
O144     O      0.687323985000     0.183808550000     0.829858550000    -0.479854   
O145     O      0.636902825000     0.154733700000     0.930586515000    -0.403907   
Zn0      Zn     0.661205010000     0.690888900000     0.412310630000     1.36779    
Zn1      Zn     0.734265940000     0.650762630000     0.346274020000     1.38268    
H2       H      0.969360400000     0.765628200000     0.337640075000     0.009555   
H3       H      0.549997270000     0.542816935000     0.454180630000     0.072608   
H4       H      0.893956850000     0.657548785000     0.275940925000     0.064518   
H5       H      0.917537780000     0.670015665000     0.205896435000     0.033738   
H6       H      0.518313945000     0.704537915000     0.188722520000     0.036614   
H7       H      0.595618425000     0.726839200000     0.242005885000     0.028538   
H8       H      0.572825730000     0.715217320000     0.311882675000     0.052459   
H9       H      0.501563670000     0.685237510000     0.483218450000    -0.151282   
H10      H      0.978060250000     0.672777310000     0.053274870000     0.044585   
H11      H      0.877240350000     0.638331190000     0.070504250000     0.036803   
H12      H      0.799808050000     0.616129800000     0.017271520000     0.04181    
H13      H      0.912098150000     0.796098085000     0.365597935000     0.018468   
H14      H      0.822519000000     0.627750485000     0.447375030000     0.046514   
H15      H      0.518965720000     0.597608945000     0.304780300000     0.065666   
H16      H      0.506201205000     0.529722415000     0.264418485000     0.026729   
H17      H      0.909679200000     0.985263050000     0.269634700000     0.044209   
H18      H      0.826217235000     0.508493015000     0.316189950000     0.036646   
H19      H      0.838389250000     0.575622595000     0.357144950000     0.046951   
H20      H      0.876320050000     0.745257540000     0.454338520000     0.058702   
H21      H      0.889024825000     0.813116850000     0.494746625000     0.032818   
H22      H      0.985589100000     0.857558600000     0.489668050000     0.039691   
H23      H      0.569149615000     0.834345350000     0.443190850000     0.040844   
H24      H      0.845588475000     0.799940550000     0.304784950000     0.08116    
H25      H      0.557038010000     0.767244700000     0.402184130000     0.042627   
H26      H      0.923984100000     0.820316525000     0.296966730000     0.064706   
H27      H      0.901005715000     0.767558750000     0.276711050000     0.079524   
H28      H      0.983125925000     0.546849220000     0.393484350000     0.01951    
H29      H      0.926060800000     0.577285140000     0.421688380000    -0.000814   
H30      H      0.994612550000     0.575013860000     0.482462315000     0.092883   
H31      H      0.971698100000     0.522323310000     0.462042950000     0.059655   
H32      H      0.610842595000     0.862932620000     0.363439470000     0.061836   
H33      H      0.785624625000     0.978282850000     0.393422450000     0.056979   
H34      H      0.604234920000     0.985112900000     0.335234225000     0.053749   
H35      H      0.792242250000     0.856101400000     0.421612830000     0.061267   
H36      H      0.621516490000     0.562296150000     0.330310150000     0.030523   
H37      H      0.774960300000     0.778913200000     0.426537425000     0.040308   
H38      H      0.596273465000     0.785139530000     0.370444900000     0.006421   
H39      H      0.800194085000     0.556080880000     0.386416525000     0.011406   
H40      H      0.636211100000     0.702868520000     0.263078600000     0.051649   
H41      H      0.628084825000     0.703274920000     0.190669450000     0.05224    
H42      H      0.571106515000     0.659781770000     0.074001610000     0.0543     
H43      H      0.806217300000     0.629653950000     0.252712280000     0.066258   
H44      H      0.797977450000     0.630155070000     0.180291950000     0.052007   
H45      H      0.547181985000     0.592128590000     0.013885450000     0.068324   
H46      H      0.946529865000     0.575393720000     0.478340270000     0.028917   
H47      H      0.894253970000     0.630601450000     0.439923465000     0.038915   
H48      H      0.763390200000     0.702916250000     0.004052500000     0.055115   
H49      H      0.942578750000     0.702949250000     0.437333225000     0.095632   
H50      H      0.543299305000     0.720179530000     0.472476185000    -0.023511   
H51      H      0.726207765000     0.761988950000     0.116456200000     0.050359   
H52      H      0.819740600000     0.791660950000     0.153147370000     0.030614   
H53      H      0.924590765000     0.760944000000     0.140398415000     0.037114   
H54      H      0.935866115000     0.700224850000     0.090632120000     0.027015   
H55      H      0.842822000000     0.669735030000     0.053930500000     0.058221   
C56      C      0.928421450000     0.666715965000     0.417333275000    -0.005523   
C57      C      0.936449000000     0.634906350000     0.356739650000    -0.013682   
C58      C      0.958939350000     0.707967490000     0.402467000000    -0.045927   
C59      C      0.917965530000     0.703454630000     0.364282050000     0.124116   
C60      C      0.977422835000     0.639419200000     0.394924650000     0.142161   
C61      C      0.887368770000     0.662497050000     0.379048615000    -0.081106   
C62      C      0.508023860000     0.680379110000     0.380161900000    -0.160121   
C63      C      0.918241680000     0.772003980000     0.340506650000     0.086808   
C64      C      0.895715300000     0.791128200000     0.302321075000    -0.192164   
C65      C      0.977155350000     0.570862540000     0.418671965000     0.109233   
C66      C      0.999867765000     0.551568880000     0.456753900000    -0.18174    
C67      C      0.982598720000     0.683876410000     0.299194800000     0.013201   
C68      C      0.938470930000     0.672235475000     0.268850800000    -0.047282   
C69      C      0.951550450000     0.679377975000     0.229137750000    -0.018279   
C70      C      0.508347690000     0.698792265000     0.219444260000    -0.040809   
C71      C      0.551979420000     0.711263465000     0.249476535000    -0.020984   
C72      C      0.539136410000     0.704059930000     0.289211200000    -0.040308   
C73      C      0.912833480000     0.659004820000     0.460016220000     0.015533   
C74      C      0.957030000000     0.670593990000     0.490336150000     0.113115   
C75      C      0.943994200000     0.663454980000     0.030055525000    -0.076438   
C76      C      0.887167335000     0.644089610000     0.039777515000    -0.049951   
C77      C      0.843466650000     0.631666300000     0.009771285000    -0.024704   
C78      C      0.856261100000     0.638870100000     0.470027985000    -0.070822   
C79      C      0.928177985000     0.593030790000     0.332519600000     0.047174   
C80      C      0.976215185000     0.578796870000     0.307089715000    -0.067688   
C81      C      0.969323575000     0.540225065000     0.284294130000     0.000607   
C82      C      0.914971600000     0.515135970000     0.287252725000    -0.051966   
C83      C      0.867822380000     0.528327320000     0.313378780000    -0.021893   
C84      C      0.874524265000     0.566906750000     0.336183520000    -0.043731   
C85      C      0.967174230000     0.749844685000     0.426697400000     0.029968   
C86      C      0.919083685000     0.764066750000     0.452082650000    -0.063334   
C87      C      0.925947050000     0.802621350000     0.474908000000    -0.011386   
C88      C      0.980324200000     0.827701150000     0.472025720000    -0.045898   
C89      C      0.527527390000     0.814519400000     0.445940750000    -0.021684   
C90      C      0.520848690000     0.775957020000     0.423105985000    -0.046215   
C91      C      0.574548065000     0.683788250000     0.383378050000     0.461933   
C92      C      0.820848825000     0.659082415000     0.375840215000     0.225968   
C93      C      0.966971800000     0.676158000000     0.341873765000     0.034416   
C94      C      0.757717300000     0.540146350000     0.374919750000     0.024508   
C95      C      0.638750435000     0.801068850000     0.381936250000     0.049158   
C96      C      0.749060690000     0.995829880000     0.379057650000    -0.078245   
C97      C      0.647406490000     0.845385580000     0.377804250000    -0.099257   
C98      C      0.692851690000     0.975111500000     0.364837750000     0.090312   
C99      C      0.703620060000     0.866098350000     0.392017275000     0.10792    
C100     C      0.647941560000     0.999744920000     0.346364915000    -0.073917   
C101     C      0.748531220000     0.841469550000     0.410483600000    -0.104733   
C102     C      0.658091650000     0.543648540000     0.343261650000     0.026115   
C103     C      0.738376700000     0.797566200000     0.413588315000     0.063967   
C104     C      0.725297735000     0.663484125000     0.306970715000     0.056109   
C105     C      0.612831270000     0.667526975000     0.016822415000     0.026078   
C106     C      0.667115120000     0.687007280000     0.203826740000    -0.063075   
C107     C      0.670408220000     0.680419860000     0.453223375000     0.042525   
C108     C      0.671884835000     0.687055975000     0.245298650000    -0.023374   
C109     C      0.712433470000     0.665969210000     0.179950030000     0.084675   
C110     C      0.721654670000     0.666133925000     0.263455035000     0.026394   
C111     C      0.767135000000     0.645892575000     0.239540620000    -0.017954   
C112     C      0.762494475000     0.645979375000     0.198238180000    -0.067291   
C113     C      0.552823970000     0.657206820000     0.495365620000    -0.07081    
C114     C      0.524754010000     0.616473630000     0.497183100000    -0.043658   
C115     C      0.967821100000     0.606915705000     0.477087200000    -0.05453    
C116     C      0.938315150000     0.638032110000     0.455438020000     0.003169   
C117     C      0.965596900000     0.678811180000     0.453935000000    -0.164613   
C118     C      0.522650335000     0.688443975000     0.473813200000     0.336924   
C119     C      0.777541965000     0.713429900000     0.082669420000     0.046072   
C120     C      0.771681130000     0.748122350000     0.110699410000    -0.056048   
C121     C      0.824580075000     0.765077400000     0.131479935000    -0.012642   
C122     C      0.883695700000     0.747783125000     0.124278470000    -0.046378   
C123     C      0.890043500000     0.713561200000     0.096208325000    -0.008952   
C124     C      0.837263880000     0.696460440000     0.075388625000    -0.068458   
C125     C      0.668134150000     0.679065250000     0.496891650000     0.013708   
C126     C      0.721606075000     0.692766590000     0.019207880000    -0.016095   
C127     C      0.721426370000     0.695056230000     0.060834335000    -0.036219   
C128     C      0.666868540000     0.681641755000     0.080658525000     0.080886   
C129     C      0.613221065000     0.668628275000     0.058509420000    -0.083569   
N130     N      0.712210535000     0.563273785000     0.357363500000    -0.145224   
N131     N      0.684261635000     0.777941100000     0.399490950000    -0.140071   
N132     N      0.678706825000     0.930502750000     0.368531400000    -0.08897    
N133     N      0.717764960000     0.910707150000     0.388323635000    -0.091414   
N134     N      0.664073540000     0.681650340000     0.122733950000    -0.089056   
N135     N      0.710933940000     0.664899230000     0.137711080000    -0.08551    
O136     O      0.514087675000     0.607603735000     0.411990350000    -0.195599   
O137     O      0.605757175000     0.659265130000     0.362680225000    -0.402901   
O138     O      0.789639600000     0.683605475000     0.396538050000    -0.352201   
O139     O      0.797342850000     0.650235550000     0.343125250000    -0.277616   
O140     O      0.598053930000     0.692635060000     0.416093000000    -0.629772   
O141     O      0.881298930000     0.735272700000     0.347228825000    -0.203076   
O142     O      0.765323670000     0.638990315000     0.321986650000    -0.68596    
O143     O      0.703602750000     0.709390650000     0.438003720000    -0.560745   
O144     O      0.687323985000     0.683808550000     0.329858550000    -0.479854   
O145     O      0.636902825000     0.654733700000     0.430586515000    -0.403907   
Zn0      Zn     0.661205010000     0.690888900000     0.912310630000     1.36779    
Zn1      Zn     0.734265940000     0.650762630000     0.846274020000     1.38268    
H2       H      0.969360400000     0.765628200000     0.837640075000     0.009555   
H3       H      0.549997270000     0.542816935000     0.954180630000     0.072608   
H4       H      0.893956850000     0.657548785000     0.775940925000     0.064518   
H5       H      0.917537780000     0.670015665000     0.705896435000     0.033738   
H6       H      0.518313945000     0.704537915000     0.688722520000     0.036614   
H7       H      0.595618425000     0.726839200000     0.742005885000     0.028538   
H8       H      0.572825730000     0.715217320000     0.811882675000     0.052459   
H9       H      0.501563670000     0.685237510000     0.983218450000    -0.151282   
H10      H      0.978060250000     0.672777310000     0.553274870000     0.044585   
H11      H      0.877240350000     0.638331190000     0.570504250000     0.036803   
H12      H      0.799808050000     0.616129800000     0.517271520000     0.04181    
H13      H      0.912098150000     0.796098085000     0.865597935000     0.018468   
H14      H      0.822519000000     0.627750485000     0.947375030000     0.046514   
H15      H      0.518965720000     0.597608945000     0.804780300000     0.065666   
H16      H      0.506201205000     0.529722415000     0.764418485000     0.026729   
H17      H      0.909679200000     0.985263050000     0.769634700000     0.044209   
H18      H      0.826217235000     0.508493015000     0.816189950000     0.036646   
H19      H      0.838389250000     0.575622595000     0.857144950000     0.046951   
H20      H      0.876320050000     0.745257540000     0.954338520000     0.058702   
H21      H      0.889024825000     0.813116850000     0.994746625000     0.032818   
H22      H      0.985589100000     0.857558600000     0.989668050000     0.039691   
H23      H      0.569149615000     0.834345350000     0.943190850000     0.040844   
H24      H      0.845588475000     0.799940550000     0.804784950000     0.08116    
H25      H      0.557038010000     0.767244700000     0.902184130000     0.042627   
H26      H      0.923984100000     0.820316525000     0.796966730000     0.064706   
H27      H      0.901005715000     0.767558750000     0.776711050000     0.079524   
H28      H      0.983125925000     0.546849220000     0.893484350000     0.01951    
H29      H      0.926060800000     0.577285140000     0.921688380000    -0.000814   
H30      H      0.994612550000     0.575013860000     0.982462315000     0.092883   
H31      H      0.971698100000     0.522323310000     0.962042950000     0.059655   
H32      H      0.610842595000     0.862932620000     0.863439470000     0.061836   
H33      H      0.785624625000     0.978282850000     0.893422450000     0.056979   
H34      H      0.604234920000     0.985112900000     0.835234225000     0.053749   
H35      H      0.792242250000     0.856101400000     0.921612830000     0.061267   
H36      H      0.621516490000     0.562296150000     0.830310150000     0.030523   
H37      H      0.774960300000     0.778913200000     0.926537425000     0.040308   
H38      H      0.596273465000     0.785139530000     0.870444900000     0.006421   
H39      H      0.800194085000     0.556080880000     0.886416525000     0.011406   
H40      H      0.636211100000     0.702868520000     0.763078600000     0.051649   
H41      H      0.628084825000     0.703274920000     0.690669450000     0.05224    
H42      H      0.571106515000     0.659781770000     0.574001610000     0.0543     
H43      H      0.806217300000     0.629653950000     0.752712280000     0.066258   
H44      H      0.797977450000     0.630155070000     0.680291950000     0.052007   
H45      H      0.547181985000     0.592128590000     0.513885450000     0.068324   
H46      H      0.946529865000     0.575393720000     0.978340270000     0.028917   
H47      H      0.894253970000     0.630601450000     0.939923465000     0.038915   
H48      H      0.763390200000     0.702916250000     0.504052500000     0.055115   
H49      H      0.942578750000     0.702949250000     0.937333225000     0.095632   
H50      H      0.543299305000     0.720179530000     0.972476185000    -0.023511   
H51      H      0.726207765000     0.761988950000     0.616456200000     0.050359   
H52      H      0.819740600000     0.791660950000     0.653147370000     0.030614   
H53      H      0.924590765000     0.760944000000     0.640398415000     0.037114   
H54      H      0.935866115000     0.700224850000     0.590632120000     0.027015   
H55      H      0.842822000000     0.669735030000     0.553930500000     0.058221   
C56      C      0.928421450000     0.666715965000     0.917333275000    -0.005523   
C57      C      0.936449000000     0.634906350000     0.856739650000    -0.013682   
C58      C      0.958939350000     0.707967490000     0.902467000000    -0.045927   
C59      C      0.917965530000     0.703454630000     0.864282050000     0.124116   
C60      C      0.977422835000     0.639419200000     0.894924650000     0.142161   
C61      C      0.887368770000     0.662497050000     0.879048615000    -0.081106   
C62      C      0.508023860000     0.680379110000     0.880161900000    -0.160121   
C63      C      0.918241680000     0.772003980000     0.840506650000     0.086808   
C64      C      0.895715300000     0.791128200000     0.802321075000    -0.192164   
C65      C      0.977155350000     0.570862540000     0.918671965000     0.109233   
C66      C      0.999867765000     0.551568880000     0.956753900000    -0.18174    
C67      C      0.982598720000     0.683876410000     0.799194800000     0.013201   
C68      C      0.938470930000     0.672235475000     0.768850800000    -0.047282   
C69      C      0.951550450000     0.679377975000     0.729137750000    -0.018279   
C70      C      0.508347690000     0.698792265000     0.719444260000    -0.040809   
C71      C      0.551979420000     0.711263465000     0.749476535000    -0.020984   
C72      C      0.539136410000     0.704059930000     0.789211200000    -0.040308   
C73      C      0.912833480000     0.659004820000     0.960016220000     0.015533   
C74      C      0.957030000000     0.670593990000     0.990336150000     0.113115   
C75      C      0.943994200000     0.663454980000     0.530055525000    -0.076438   
C76      C      0.887167335000     0.644089610000     0.539777515000    -0.049951   
C77      C      0.843466650000     0.631666300000     0.509771285000    -0.024704   
C78      C      0.856261100000     0.638870100000     0.970027985000    -0.070822   
C79      C      0.928177985000     0.593030790000     0.832519600000     0.047174   
C80      C      0.976215185000     0.578796870000     0.807089715000    -0.067688   
C81      C      0.969323575000     0.540225065000     0.784294130000     0.000607   
C82      C      0.914971600000     0.515135970000     0.787252725000    -0.051966   
C83      C      0.867822380000     0.528327320000     0.813378780000    -0.021893   
C84      C      0.874524265000     0.566906750000     0.836183520000    -0.043731   
C85      C      0.967174230000     0.749844685000     0.926697400000     0.029968   
C86      C      0.919083685000     0.764066750000     0.952082650000    -0.063334   
C87      C      0.925947050000     0.802621350000     0.974908000000    -0.011386   
C88      C      0.980324200000     0.827701150000     0.972025720000    -0.045898   
C89      C      0.527527390000     0.814519400000     0.945940750000    -0.021684   
C90      C      0.520848690000     0.775957020000     0.923105985000    -0.046215   
C91      C      0.574548065000     0.683788250000     0.883378050000     0.461933   
C92      C      0.820848825000     0.659082415000     0.875840215000     0.225968   
C93      C      0.966971800000     0.676158000000     0.841873765000     0.034416   
C94      C      0.757717300000     0.540146350000     0.874919750000     0.024508   
C95      C      0.638750435000     0.801068850000     0.881936250000     0.049158   
C96      C      0.749060690000     0.995829880000     0.879057650000    -0.078245   
C97      C      0.647406490000     0.845385580000     0.877804250000    -0.099257   
C98      C      0.692851690000     0.975111500000     0.864837750000     0.090312   
C99      C      0.703620060000     0.866098350000     0.892017275000     0.10792    
C100     C      0.647941560000     0.999744920000     0.846364915000    -0.073917   
C101     C      0.748531220000     0.841469550000     0.910483600000    -0.104733   
C102     C      0.658091650000     0.543648540000     0.843261650000     0.026115   
C103     C      0.738376700000     0.797566200000     0.913588315000     0.063967   
C104     C      0.725297735000     0.663484125000     0.806970715000     0.056109   
C105     C      0.612831270000     0.667526975000     0.516822415000     0.026078   
C106     C      0.667115120000     0.687007280000     0.703826740000    -0.063075   
C107     C      0.670408220000     0.680419860000     0.953223375000     0.042525   
C108     C      0.671884835000     0.687055975000     0.745298650000    -0.023374   
C109     C      0.712433470000     0.665969210000     0.679950030000     0.084675   
C110     C      0.721654670000     0.666133925000     0.763455035000     0.026394   
C111     C      0.767135000000     0.645892575000     0.739540620000    -0.017954   
C112     C      0.762494475000     0.645979375000     0.698238180000    -0.067291   
C113     C      0.552823970000     0.657206820000     0.995365620000    -0.07081    
C114     C      0.524754010000     0.616473630000     0.997183100000    -0.043658   
C115     C      0.967821100000     0.606915705000     0.977087200000    -0.05453    
C116     C      0.938315150000     0.638032110000     0.955438020000     0.003169   
C117     C      0.965596900000     0.678811180000     0.953935000000    -0.164613   
C118     C      0.522650335000     0.688443975000     0.973813200000     0.336924   
C119     C      0.777541965000     0.713429900000     0.582669420000     0.046072   
C120     C      0.771681130000     0.748122350000     0.610699410000    -0.056048   
C121     C      0.824580075000     0.765077400000     0.631479935000    -0.012642   
C122     C      0.883695700000     0.747783125000     0.624278470000    -0.046378   
C123     C      0.890043500000     0.713561200000     0.596208325000    -0.008952   
C124     C      0.837263880000     0.696460440000     0.575388625000    -0.068458   
C125     C      0.668134150000     0.679065250000     0.996891650000     0.013708   
C126     C      0.721606075000     0.692766590000     0.519207880000    -0.016095   
C127     C      0.721426370000     0.695056230000     0.560834335000    -0.036219   
C128     C      0.666868540000     0.681641755000     0.580658525000     0.080886   
C129     C      0.613221065000     0.668628275000     0.558509420000    -0.083569   
N130     N      0.712210535000     0.563273785000     0.857363500000    -0.145224   
N131     N      0.684261635000     0.777941100000     0.899490950000    -0.140071   
N132     N      0.678706825000     0.930502750000     0.868531400000    -0.08897    
N133     N      0.717764960000     0.910707150000     0.888323635000    -0.091414   
N134     N      0.664073540000     0.681650340000     0.622733950000    -0.089056   
N135     N      0.710933940000     0.664899230000     0.637711080000    -0.08551    
O136     O      0.514087675000     0.607603735000     0.911990350000    -0.195599   
O137     O      0.605757175000     0.659265130000     0.862680225000    -0.402901   
O138     O      0.789639600000     0.683605475000     0.896538050000    -0.352201   
O139     O      0.797342850000     0.650235550000     0.843125250000    -0.277616   
O140     O      0.598053930000     0.692635060000     0.916093000000    -0.629772   
O141     O      0.881298930000     0.735272700000     0.847228825000    -0.203076   
O142     O      0.765323670000     0.638990315000     0.821986650000    -0.68596    
O143     O      0.703602750000     0.709390650000     0.938003720000    -0.560745   
O144     O      0.687323985000     0.683808550000     0.829858550000    -0.479854   
O145     O      0.636902825000     0.654733700000     0.930586515000    -0.403907   


