data_sample_2_relaxed_charged

_audit_creation_method RASPA-1.0
_audit_creation_date 2026-2-4
_audit_author_name ''

_cell_length_a    9.64459
_cell_length_b    13.2307
_cell_length_c    18.1955
_cell_angle_alpha 94.0082
_cell_angle_beta  92.2761
_cell_angle_gamma 92.3845
_cell_volume      18496.2

_symmetry_cell_setting          triclinic
_symmetry_space_group_name_Hall 'P 1'
_symmetry_space_group_name_H-M  'P 1'
_symmetry_Int_Tables_number     1

_symmetry_equiv_pos_as_xyz 'x,y,z'

loop_
_atom_site_label
_atom_site_type_symbol
_atom_site_fract_x
_atom_site_fract_y
_atom_site_fract_z
_atom_site_charge
Cu0      Cu     0.151208670000     0.481943700000     0.437874850000     0.057792   
Cu0      Cu     0.151208670000     0.481943700000     0.937874850000     0.057792   
Cu0      Cu     0.151208670000     0.981943700000     0.437874850000     0.057792   
Cu0      Cu     0.151208670000     0.981943700000     0.937874850000     0.057792   
Cu0      Cu     0.651208670000     0.481943700000     0.437874850000     0.057792   
Cu0      Cu     0.651208670000     0.481943700000     0.937874850000     0.057792   
Cu0      Cu     0.651208670000     0.981943700000     0.437874850000     0.057792   
Cu0      Cu     0.651208670000     0.981943700000     0.937874850000     0.057792   
Cu1      Cu     0.292345315000     0.482355775000     0.441655450000     0.061689   
Cu1      Cu     0.292345315000     0.482355775000     0.941655450000     0.061689   
Cu1      Cu     0.292345315000     0.982355775000     0.441655450000     0.061689   
Cu1      Cu     0.292345315000     0.982355775000     0.941655450000     0.061689   
Cu1      Cu     0.792345315000     0.482355775000     0.441655450000     0.061689   
Cu1      Cu     0.792345315000     0.482355775000     0.941655450000     0.061689   
Cu1      Cu     0.792345315000     0.982355775000     0.441655450000     0.061689   
Cu1      Cu     0.792345315000     0.982355775000     0.941655450000     0.061689   
H2       H      0.350226370000     0.434831850000     0.407381835000     0.05676    
H2       H      0.350226370000     0.434831850000     0.907381835000     0.05676    
H2       H      0.350226370000     0.934831850000     0.407381835000     0.05676    
H2       H      0.350226370000     0.934831850000     0.907381835000     0.05676    
H2       H      0.850226370000     0.434831850000     0.407381835000     0.05676    
H2       H      0.850226370000     0.434831850000     0.907381835000     0.05676    
H2       H      0.850226370000     0.934831850000     0.407381835000     0.05676    
H2       H      0.850226370000     0.934831850000     0.907381835000     0.05676    
H3       H      0.092947005000     0.025635660000     0.473374575000     0.004198   
H3       H      0.092947005000     0.025635660000     0.973374575000     0.004198   
H3       H      0.092947005000     0.525635660000     0.473374575000     0.004198   
H3       H      0.092947005000     0.525635660000     0.973374575000     0.004198   
H3       H      0.592947005000     0.025635660000     0.473374575000     0.004198   
H3       H      0.592947005000     0.025635660000     0.973374575000     0.004198   
H3       H      0.592947005000     0.525635660000     0.473374575000     0.004198   
H3       H      0.592947005000     0.525635660000     0.973374575000     0.004198   
H4       H      0.352095750000     0.036884545000     0.001509905000     0.027972   
H4       H      0.352095750000     0.036884545000     0.501509905000     0.027972   
H4       H      0.352095750000     0.536884545000     0.001509905000     0.027972   
H4       H      0.352095750000     0.536884545000     0.501509905000     0.027972   
H4       H      0.852095750000     0.036884545000     0.001509905000     0.027972   
H4       H      0.852095750000     0.036884545000     0.501509905000     0.027972   
H4       H      0.852095750000     0.536884545000     0.001509905000     0.027972   
H4       H      0.852095750000     0.536884545000     0.501509905000     0.027972   
H5       H      0.092504920000     0.431278465000     0.375871650000     0.040791   
H5       H      0.092504920000     0.431278465000     0.875871650000     0.040791   
H5       H      0.092504920000     0.931278465000     0.375871650000     0.040791   
H5       H      0.092504920000     0.931278465000     0.875871650000     0.040791   
H5       H      0.592504920000     0.431278465000     0.375871650000     0.040791   
H5       H      0.592504920000     0.431278465000     0.875871650000     0.040791   
H5       H      0.592504920000     0.931278465000     0.375871650000     0.040791   
H5       H      0.592504920000     0.931278465000     0.875871650000     0.040791   
H6       H      0.441969000000     0.336638420000     0.354932250000     0.021292   
H6       H      0.441969000000     0.336638420000     0.854932250000     0.021292   
H6       H      0.441969000000     0.836638420000     0.354932250000     0.021292   
H6       H      0.441969000000     0.836638420000     0.854932250000     0.021292   
H6       H      0.941969000000     0.336638420000     0.354932250000     0.021292   
H6       H      0.941969000000     0.336638420000     0.854932250000     0.021292   
H6       H      0.941969000000     0.836638420000     0.354932250000     0.021292   
H6       H      0.941969000000     0.836638420000     0.854932250000     0.021292   
H7       H      0.024147510000     0.355228650000     0.376398800000     0.012776   
H7       H      0.024147510000     0.355228650000     0.876398800000     0.012776   
H7       H      0.024147510000     0.855228650000     0.376398800000     0.012776   
H7       H      0.024147510000     0.855228650000     0.876398800000     0.012776   
H7       H      0.524147510000     0.355228650000     0.376398800000     0.012776   
H7       H      0.524147510000     0.355228650000     0.876398800000     0.012776   
H7       H      0.524147510000     0.855228650000     0.376398800000     0.012776   
H7       H      0.524147510000     0.855228650000     0.876398800000     0.012776   
H8       H      0.467008200000     0.378780700000     0.298881500000     0.068706   
H8       H      0.467008200000     0.378780700000     0.798881500000     0.068706   
H8       H      0.467008200000     0.878780700000     0.298881500000     0.068706   
H8       H      0.467008200000     0.878780700000     0.798881500000     0.068706   
H8       H      0.967008200000     0.378780700000     0.298881500000     0.068706   
H8       H      0.967008200000     0.378780700000     0.798881500000     0.068706   
H8       H      0.967008200000     0.878780700000     0.298881500000     0.068706   
H8       H      0.967008200000     0.878780700000     0.798881500000     0.068706   
H9       H      0.048013270000     0.405633250000     0.318465850000     0.012863   
H9       H      0.048013270000     0.405633250000     0.818465850000     0.012863   
H9       H      0.048013270000     0.905633250000     0.318465850000     0.012863   
H9       H      0.048013270000     0.905633250000     0.818465850000     0.012863   
H9       H      0.548013270000     0.405633250000     0.318465850000     0.012863   
H9       H      0.548013270000     0.405633250000     0.818465850000     0.012863   
H9       H      0.548013270000     0.905633250000     0.318465850000     0.012863   
H9       H      0.548013270000     0.905633250000     0.818465850000     0.012863   
H10      H      0.092574775000     0.319116535000     0.323264180000     0.022888   
H10      H      0.092574775000     0.319116535000     0.823264180000     0.022888   
H10      H      0.092574775000     0.819116535000     0.323264180000     0.022888   
H10      H      0.092574775000     0.819116535000     0.823264180000     0.022888   
H10      H      0.592574775000     0.319116535000     0.323264180000     0.022888   
H10      H      0.592574775000     0.319116535000     0.823264180000     0.022888   
H10      H      0.592574775000     0.819116535000     0.323264180000     0.022888   
H10      H      0.592574775000     0.819116535000     0.823264180000     0.022888   
H11      H      0.064243255000     0.328965800000     0.276551500000     0.061016   
H11      H      0.064243255000     0.328965800000     0.776551500000     0.061016   
H11      H      0.064243255000     0.828965800000     0.276551500000     0.061016   
H11      H      0.064243255000     0.828965800000     0.776551500000     0.061016   
H11      H      0.564243255000     0.328965800000     0.276551500000     0.061016   
H11      H      0.564243255000     0.328965800000     0.776551500000     0.061016   
H11      H      0.564243255000     0.828965800000     0.276551500000     0.061016   
H11      H      0.564243255000     0.828965800000     0.776551500000     0.061016   
H12      H      0.010039090000     0.291310070000     0.304470150000     0.072089   
H12      H      0.010039090000     0.291310070000     0.804470150000     0.072089   
H12      H      0.010039090000     0.791310070000     0.304470150000     0.072089   
H12      H      0.010039090000     0.791310070000     0.804470150000     0.072089   
H12      H      0.510039090000     0.291310070000     0.304470150000     0.072089   
H12      H      0.510039090000     0.291310070000     0.804470150000     0.072089   
H12      H      0.510039090000     0.791310070000     0.304470150000     0.072089   
H12      H      0.510039090000     0.791310070000     0.804470150000     0.072089   
H13      H      0.486790000000     0.128552975000     0.029711785000     0.068924   
H13      H      0.486790000000     0.128552975000     0.529711785000     0.068924   
H13      H      0.486790000000     0.628552975000     0.029711785000     0.068924   
H13      H      0.486790000000     0.628552975000     0.529711785000     0.068924   
H13      H      0.986790000000     0.128552975000     0.029711785000     0.068924   
H13      H      0.986790000000     0.128552975000     0.529711785000     0.068924   
H13      H      0.986790000000     0.628552975000     0.029711785000     0.068924   
H13      H      0.986790000000     0.628552975000     0.529711785000     0.068924   
H14      H      0.420145275000     0.113077400000     0.495049600000     0.079164   
H14      H      0.420145275000     0.113077400000     0.995049600000     0.079164   
H14      H      0.420145275000     0.613077400000     0.495049600000     0.079164   
H14      H      0.420145275000     0.613077400000     0.995049600000     0.079164   
H14      H      0.920145275000     0.113077400000     0.495049600000     0.079164   
H14      H      0.920145275000     0.113077400000     0.995049600000     0.079164   
H14      H      0.920145275000     0.613077400000     0.495049600000     0.079164   
H14      H      0.920145275000     0.613077400000     0.995049600000     0.079164   
H15      H      0.078255475000     0.122372925000     0.482244820000     0.060185   
H15      H      0.078255475000     0.122372925000     0.982244820000     0.060185   
H15      H      0.078255475000     0.622372925000     0.482244820000     0.060185   
H15      H      0.078255475000     0.622372925000     0.982244820000     0.060185   
H15      H      0.578255475000     0.122372925000     0.482244820000     0.060185   
H15      H      0.578255475000     0.122372925000     0.982244820000     0.060185   
H15      H      0.578255475000     0.622372925000     0.482244820000     0.060185   
H15      H      0.578255475000     0.622372925000     0.982244820000     0.060185   
H16      H      0.010976610000     0.109072925000     0.446681770000     0.060084   
H16      H      0.010976610000     0.109072925000     0.946681770000     0.060084   
H16      H      0.010976610000     0.609072925000     0.446681770000     0.060084   
H16      H      0.010976610000     0.609072925000     0.946681770000     0.060084   
H16      H      0.510976610000     0.109072925000     0.446681770000     0.060084   
H16      H      0.510976610000     0.109072925000     0.946681770000     0.060084   
H16      H      0.510976610000     0.609072925000     0.446681770000     0.060084   
H16      H      0.510976610000     0.609072925000     0.946681770000     0.060084   
H17      H      0.460069000000     0.192444150000     0.462829920000     0.065616   
H17      H      0.460069000000     0.192444150000     0.962829920000     0.065616   
H17      H      0.460069000000     0.692444150000     0.462829920000     0.065616   
H17      H      0.460069000000     0.692444150000     0.962829920000     0.065616   
H17      H      0.960069000000     0.192444150000     0.462829920000     0.065616   
H17      H      0.960069000000     0.192444150000     0.962829920000     0.065616   
H17      H      0.960069000000     0.692444150000     0.462829920000     0.065616   
H17      H      0.960069000000     0.692444150000     0.962829920000     0.065616   
H18      H      0.049998225000     0.200258790000     0.451727180000     0.072671   
H18      H      0.049998225000     0.200258790000     0.951727180000     0.072671   
H18      H      0.049998225000     0.700258790000     0.451727180000     0.072671   
H18      H      0.049998225000     0.700258790000     0.951727180000     0.072671   
H18      H      0.549998225000     0.200258790000     0.451727180000     0.072671   
H18      H      0.549998225000     0.200258790000     0.951727180000     0.072671   
H18      H      0.549998225000     0.700258790000     0.451727180000     0.072671   
H18      H      0.549998225000     0.700258790000     0.951727180000     0.072671   
H19      H      0.026548030000     0.206108270000     0.499199865000     0.067316   
H19      H      0.026548030000     0.206108270000     0.999199865000     0.067316   
H19      H      0.026548030000     0.706108270000     0.499199865000     0.067316   
H19      H      0.026548030000     0.706108270000     0.999199865000     0.067316   
H19      H      0.526548030000     0.206108270000     0.499199865000     0.067316   
H19      H      0.526548030000     0.206108270000     0.999199865000     0.067316   
H19      H      0.526548030000     0.706108270000     0.499199865000     0.067316   
H19      H      0.526548030000     0.706108270000     0.999199865000     0.067316   
H20      H      0.090686725000     0.141554175000     0.465354500000     0.03028    
H20      H      0.090686725000     0.141554175000     0.965354500000     0.03028    
H20      H      0.090686725000     0.641554175000     0.465354500000     0.03028    
H20      H      0.090686725000     0.641554175000     0.965354500000     0.03028    
H20      H      0.590686725000     0.141554175000     0.465354500000     0.03028    
H20      H      0.590686725000     0.141554175000     0.965354500000     0.03028    
H20      H      0.590686725000     0.641554175000     0.465354500000     0.03028    
H20      H      0.590686725000     0.641554175000     0.965354500000     0.03028    
H21      H      0.347448600000     0.323057830000     0.414240030000     0.032714   
H21      H      0.347448600000     0.323057830000     0.914240030000     0.032714   
H21      H      0.347448600000     0.823057830000     0.414240030000     0.032714   
H21      H      0.347448600000     0.823057830000     0.914240030000     0.032714   
H21      H      0.847448600000     0.323057830000     0.414240030000     0.032714   
H21      H      0.847448600000     0.323057830000     0.914240030000     0.032714   
H21      H      0.847448600000     0.823057830000     0.414240030000     0.032714   
H21      H      0.847448600000     0.823057830000     0.914240030000     0.032714   
H22      H      0.173219900000     0.094764420000     0.361906915000     0.018177   
H22      H      0.173219900000     0.094764420000     0.861906915000     0.018177   
H22      H      0.173219900000     0.594764420000     0.361906915000     0.018177   
H22      H      0.173219900000     0.594764420000     0.861906915000     0.018177   
H22      H      0.673219900000     0.094764420000     0.361906915000     0.018177   
H22      H      0.673219900000     0.094764420000     0.861906915000     0.018177   
H22      H      0.673219900000     0.594764420000     0.361906915000     0.018177   
H22      H      0.673219900000     0.594764420000     0.861906915000     0.018177   
H23      H      0.169684185000     0.157309680000     0.345237450000     0.006951   
H23      H      0.169684185000     0.157309680000     0.845237450000     0.006951   
H23      H      0.169684185000     0.657309680000     0.345237450000     0.006951   
H23      H      0.169684185000     0.657309680000     0.845237450000     0.006951   
H23      H      0.669684185000     0.157309680000     0.345237450000     0.006951   
H23      H      0.669684185000     0.157309680000     0.845237450000     0.006951   
H23      H      0.669684185000     0.657309680000     0.345237450000     0.006951   
H23      H      0.669684185000     0.657309680000     0.845237450000     0.006951   
H24      H      0.228226675000     0.112249195000     0.325815915000     0.073764   
H24      H      0.228226675000     0.112249195000     0.825815915000     0.073764   
H24      H      0.228226675000     0.612249195000     0.325815915000     0.073764   
H24      H      0.228226675000     0.612249195000     0.825815915000     0.073764   
H24      H      0.728226675000     0.112249195000     0.325815915000     0.073764   
H24      H      0.728226675000     0.112249195000     0.825815915000     0.073764   
H24      H      0.728226675000     0.612249195000     0.325815915000     0.073764   
H24      H      0.728226675000     0.612249195000     0.825815915000     0.073764   
H25      H      0.291606300000     0.175117330000     0.365476350000     0.037775   
H25      H      0.291606300000     0.175117330000     0.865476350000     0.037775   
H25      H      0.291606300000     0.675117330000     0.365476350000     0.037775   
H25      H      0.291606300000     0.675117330000     0.865476350000     0.037775   
H25      H      0.791606300000     0.175117330000     0.365476350000     0.037775   
H25      H      0.791606300000     0.175117330000     0.865476350000     0.037775   
H25      H      0.791606300000     0.675117330000     0.365476350000     0.037775   
H25      H      0.791606300000     0.675117330000     0.865476350000     0.037775   
H26      H      0.297445200000     0.116049180000     0.385859370000     0.022519   
H26      H      0.297445200000     0.116049180000     0.885859370000     0.022519   
H26      H      0.297445200000     0.616049180000     0.385859370000     0.022519   
H26      H      0.297445200000     0.616049180000     0.885859370000     0.022519   
H26      H      0.797445200000     0.116049180000     0.385859370000     0.022519   
H26      H      0.797445200000     0.116049180000     0.885859370000     0.022519   
H26      H      0.797445200000     0.616049180000     0.385859370000     0.022519   
H26      H      0.797445200000     0.616049180000     0.885859370000     0.022519   
H27      H      0.270362885000     0.308034420000     0.035586120000     0.071534   
H27      H      0.270362885000     0.308034420000     0.535586120000     0.071534   
H27      H      0.270362885000     0.808034420000     0.035586120000     0.071534   
H27      H      0.270362885000     0.808034420000     0.535586120000     0.071534   
H27      H      0.770362885000     0.308034420000     0.035586120000     0.071534   
H27      H      0.770362885000     0.308034420000     0.535586120000     0.071534   
H27      H      0.770362885000     0.808034420000     0.035586120000     0.071534   
H27      H      0.770362885000     0.808034420000     0.535586120000     0.071534   
H28      H      0.266625300000     0.369795600000     0.017733755000     0.026165   
H28      H      0.266625300000     0.369795600000     0.517733755000     0.026165   
H28      H      0.266625300000     0.869795600000     0.017733755000     0.026165   
H28      H      0.266625300000     0.869795600000     0.517733755000     0.026165   
H28      H      0.766625300000     0.369795600000     0.017733755000     0.026165   
H28      H      0.766625300000     0.369795600000     0.517733755000     0.026165   
H28      H      0.766625300000     0.869795600000     0.017733755000     0.026165   
H28      H      0.766625300000     0.869795600000     0.517733755000     0.026165   
H29      H      0.211610550000     0.353722800000     0.054088830000     0.030752   
H29      H      0.211610550000     0.353722800000     0.554088830000     0.030752   
H29      H      0.211610550000     0.853722800000     0.054088830000     0.030752   
H29      H      0.211610550000     0.853722800000     0.554088830000     0.030752   
H29      H      0.711610550000     0.353722800000     0.054088830000     0.030752   
H29      H      0.711610550000     0.353722800000     0.554088830000     0.030752   
H29      H      0.711610550000     0.853722800000     0.054088830000     0.030752   
H29      H      0.711610550000     0.853722800000     0.554088830000     0.030752   
H30      H      0.141514660000     0.347268150000     0.494714750000     0.056408   
H30      H      0.141514660000     0.347268150000     0.994714750000     0.056408   
H30      H      0.141514660000     0.847268150000     0.494714750000     0.056408   
H30      H      0.141514660000     0.847268150000     0.994714750000     0.056408   
H30      H      0.641514660000     0.347268150000     0.494714750000     0.056408   
H30      H      0.641514660000     0.347268150000     0.994714750000     0.056408   
H30      H      0.641514660000     0.847268150000     0.494714750000     0.056408   
H30      H      0.641514660000     0.847268150000     0.994714750000     0.056408   
H31      H      0.149504425000     0.288442225000     0.015398145000     0.072049   
H31      H      0.149504425000     0.288442225000     0.515398145000     0.072049   
H31      H      0.149504425000     0.788442225000     0.015398145000     0.072049   
H31      H      0.149504425000     0.788442225000     0.515398145000     0.072049   
H31      H      0.649504425000     0.288442225000     0.015398145000     0.072049   
H31      H      0.649504425000     0.288442225000     0.515398145000     0.072049   
H31      H      0.649504425000     0.788442225000     0.015398145000     0.072049   
H31      H      0.649504425000     0.788442225000     0.515398145000     0.072049   
H32      H      0.373420850000     0.184486510000     0.452147950000     0.047893   
H32      H      0.373420850000     0.184486510000     0.952147950000     0.047893   
H32      H      0.373420850000     0.684486510000     0.452147950000     0.047893   
H32      H      0.373420850000     0.684486510000     0.952147950000     0.047893   
H32      H      0.873420850000     0.184486510000     0.452147950000     0.047893   
H32      H      0.873420850000     0.184486510000     0.952147950000     0.047893   
H32      H      0.873420850000     0.684486510000     0.452147950000     0.047893   
H32      H      0.873420850000     0.684486510000     0.952147950000     0.047893   
H33      H      0.422683475000     0.244858010000     0.453695800000     0.071679   
H33      H      0.422683475000     0.244858010000     0.953695800000     0.071679   
H33      H      0.422683475000     0.744858010000     0.453695800000     0.071679   
H33      H      0.422683475000     0.744858010000     0.953695800000     0.071679   
H33      H      0.922683475000     0.244858010000     0.453695800000     0.071679   
H33      H      0.922683475000     0.244858010000     0.953695800000     0.071679   
H33      H      0.922683475000     0.744858010000     0.453695800000     0.071679   
H33      H      0.922683475000     0.744858010000     0.953695800000     0.071679   
H34      H      0.447467000000     0.149337500000     0.403263100000     0.059118   
H34      H      0.447467000000     0.149337500000     0.903263100000     0.059118   
H34      H      0.447467000000     0.649337500000     0.403263100000     0.059118   
H34      H      0.447467000000     0.649337500000     0.903263100000     0.059118   
H34      H      0.947467000000     0.149337500000     0.403263100000     0.059118   
H34      H      0.947467000000     0.149337500000     0.903263100000     0.059118   
H34      H      0.947467000000     0.649337500000     0.403263100000     0.059118   
H34      H      0.947467000000     0.649337500000     0.903263100000     0.059118   
H35      H      0.496210700000     0.209117415000     0.403727600000     0.070478   
H35      H      0.496210700000     0.209117415000     0.903727600000     0.070478   
H35      H      0.496210700000     0.709117415000     0.403727600000     0.070478   
H35      H      0.496210700000     0.709117415000     0.903727600000     0.070478   
H35      H      0.996210700000     0.209117415000     0.403727600000     0.070478   
H35      H      0.996210700000     0.209117415000     0.903727600000     0.070478   
H35      H      0.996210700000     0.709117415000     0.403727600000     0.070478   
H35      H      0.996210700000     0.709117415000     0.903727600000     0.070478   
H36      H      0.035004435000     0.201705550000     0.469233650000     0.038801   
H36      H      0.035004435000     0.201705550000     0.969233650000     0.038801   
H36      H      0.035004435000     0.701705550000     0.469233650000     0.038801   
H36      H      0.035004435000     0.701705550000     0.969233650000     0.038801   
H36      H      0.535004435000     0.201705550000     0.469233650000     0.038801   
H36      H      0.535004435000     0.201705550000     0.969233650000     0.038801   
H36      H      0.535004435000     0.701705550000     0.469233650000     0.038801   
H36      H      0.535004435000     0.701705550000     0.969233650000     0.038801   
H37      H      0.056345760000     0.146090600000     0.441006570000     0.029697   
H37      H      0.056345760000     0.146090600000     0.941006570000     0.029697   
H37      H      0.056345760000     0.646090600000     0.441006570000     0.029697   
H37      H      0.056345760000     0.646090600000     0.941006570000     0.029697   
H37      H      0.556345760000     0.146090600000     0.441006570000     0.029697   
H37      H      0.556345760000     0.146090600000     0.941006570000     0.029697   
H37      H      0.556345760000     0.646090600000     0.441006570000     0.029697   
H37      H      0.556345760000     0.646090600000     0.941006570000     0.029697   
H38      H      0.483059975000     0.143830950000     0.470392350000     0.051918   
H38      H      0.483059975000     0.143830950000     0.970392350000     0.051918   
H38      H      0.483059975000     0.643830950000     0.470392350000     0.051918   
H38      H      0.483059975000     0.643830950000     0.970392350000     0.051918   
H38      H      0.983059975000     0.143830950000     0.470392350000     0.051918   
H38      H      0.983059975000     0.143830950000     0.970392350000     0.051918   
H38      H      0.983059975000     0.643830950000     0.470392350000     0.051918   
H38      H      0.983059975000     0.643830950000     0.970392350000     0.051918   
H39      H      0.475575200000     0.249443620000     0.460269000000     0.060868   
H39      H      0.475575200000     0.249443620000     0.960269000000     0.060868   
H39      H      0.475575200000     0.749443620000     0.460269000000     0.060868   
H39      H      0.475575200000     0.749443620000     0.960269000000     0.060868   
H39      H      0.975575200000     0.249443620000     0.460269000000     0.060868   
H39      H      0.975575200000     0.249443620000     0.960269000000     0.060868   
H39      H      0.975575200000     0.749443620000     0.460269000000     0.060868   
H39      H      0.975575200000     0.749443620000     0.960269000000     0.060868   
H40      H      0.015243935000     0.204207525000     0.430115225000     0.056343   
H40      H      0.015243935000     0.204207525000     0.930115225000     0.056343   
H40      H      0.015243935000     0.704207525000     0.430115225000     0.056343   
H40      H      0.015243935000     0.704207525000     0.930115225000     0.056343   
H40      H      0.515243935000     0.204207525000     0.430115225000     0.056343   
H40      H      0.515243935000     0.204207525000     0.930115225000     0.056343   
H40      H      0.515243935000     0.704207525000     0.430115225000     0.056343   
H40      H      0.515243935000     0.704207525000     0.930115225000     0.056343   
H41      H      0.048801305000     0.320494325000     0.437609200000     0.056657   
H41      H      0.048801305000     0.320494325000     0.937609200000     0.056657   
H41      H      0.048801305000     0.820494325000     0.437609200000     0.056657   
H41      H      0.048801305000     0.820494325000     0.937609200000     0.056657   
H41      H      0.548801305000     0.320494325000     0.437609200000     0.056657   
H41      H      0.548801305000     0.320494325000     0.937609200000     0.056657   
H41      H      0.548801305000     0.820494325000     0.437609200000     0.056657   
H41      H      0.548801305000     0.820494325000     0.937609200000     0.056657   
H42      H      0.086818730000     0.275924500000     0.405367900000     0.053458   
H42      H      0.086818730000     0.275924500000     0.905367900000     0.053458   
H42      H      0.086818730000     0.775924500000     0.405367900000     0.053458   
H42      H      0.086818730000     0.775924500000     0.905367900000     0.053458   
H42      H      0.586818730000     0.275924500000     0.405367900000     0.053458   
H42      H      0.586818730000     0.275924500000     0.905367900000     0.053458   
H42      H      0.586818730000     0.775924500000     0.405367900000     0.053458   
H42      H      0.586818730000     0.775924500000     0.905367900000     0.053458   
H43      H      0.468208430000     0.251968115000     0.376604200000    -0.019033   
H43      H      0.468208430000     0.251968115000     0.876604200000    -0.019033   
H43      H      0.468208430000     0.751968115000     0.376604200000    -0.019033   
H43      H      0.468208430000     0.751968115000     0.876604200000    -0.019033   
H43      H      0.968208430000     0.251968115000     0.376604200000    -0.019033   
H43      H      0.968208430000     0.251968115000     0.876604200000    -0.019033   
H43      H      0.968208430000     0.751968115000     0.376604200000    -0.019033   
H43      H      0.968208430000     0.751968115000     0.876604200000    -0.019033   
H44      H      0.492245500000     0.318192125000     0.374288320000    -0.00913    
H44      H      0.492245500000     0.318192125000     0.874288320000    -0.00913    
H44      H      0.492245500000     0.818192125000     0.374288320000    -0.00913    
H44      H      0.492245500000     0.818192125000     0.874288320000    -0.00913    
H44      H      0.992245500000     0.318192125000     0.374288320000    -0.00913    
H44      H      0.992245500000     0.318192125000     0.874288320000    -0.00913    
H44      H      0.992245500000     0.818192125000     0.374288320000    -0.00913    
H44      H      0.992245500000     0.818192125000     0.874288320000    -0.00913    
H45      H      0.431643400000     0.299127700000     0.407827975000     0.078787   
H45      H      0.431643400000     0.299127700000     0.907827975000     0.078787   
H45      H      0.431643400000     0.799127700000     0.407827975000     0.078787   
H45      H      0.431643400000     0.799127700000     0.907827975000     0.078787   
H45      H      0.931643400000     0.299127700000     0.407827975000     0.078787   
H45      H      0.931643400000     0.299127700000     0.907827975000     0.078787   
H45      H      0.931643400000     0.799127700000     0.407827975000     0.078787   
H45      H      0.931643400000     0.799127700000     0.907827975000     0.078787   
H46      H      0.334120125000     0.380687000000     0.120926400000     0.07781    
H46      H      0.334120125000     0.380687000000     0.620926400000     0.07781    
H46      H      0.334120125000     0.880687000000     0.120926400000     0.07781    
H46      H      0.334120125000     0.880687000000     0.620926400000     0.07781    
H46      H      0.834120125000     0.380687000000     0.120926400000     0.07781    
H46      H      0.834120125000     0.380687000000     0.620926400000     0.07781    
H46      H      0.834120125000     0.880687000000     0.120926400000     0.07781    
H46      H      0.834120125000     0.880687000000     0.620926400000     0.07781    
H47      H      0.258022750000     0.378667650000     0.147437020000     0.02665    
H47      H      0.258022750000     0.378667650000     0.647437020000     0.02665    
H47      H      0.258022750000     0.878667650000     0.147437020000     0.02665    
H47      H      0.258022750000     0.878667650000     0.647437020000     0.02665    
H47      H      0.758022750000     0.378667650000     0.147437020000     0.02665    
H47      H      0.758022750000     0.378667650000     0.647437020000     0.02665    
H47      H      0.758022750000     0.878667650000     0.147437020000     0.02665    
H47      H      0.758022750000     0.878667650000     0.647437020000     0.02665    
H48      H      0.408367125000     0.362591500000     0.175132470000     0.036584   
H48      H      0.408367125000     0.362591500000     0.675132470000     0.036584   
H48      H      0.408367125000     0.862591500000     0.175132470000     0.036584   
H48      H      0.408367125000     0.862591500000     0.675132470000     0.036584   
H48      H      0.908367125000     0.362591500000     0.175132470000     0.036584   
H48      H      0.908367125000     0.362591500000     0.675132470000     0.036584   
H48      H      0.908367125000     0.862591500000     0.175132470000     0.036584   
H48      H      0.908367125000     0.862591500000     0.675132470000     0.036584   
H49      H      0.333203820000     0.362140600000     0.203344000000     0.036418   
H49      H      0.333203820000     0.362140600000     0.703344000000     0.036418   
H49      H      0.333203820000     0.862140600000     0.203344000000     0.036418   
H49      H      0.333203820000     0.862140600000     0.703344000000     0.036418   
H49      H      0.833203820000     0.362140600000     0.203344000000     0.036418   
H49      H      0.833203820000     0.362140600000     0.703344000000     0.036418   
H49      H      0.833203820000     0.862140600000     0.203344000000     0.036418   
H49      H      0.833203820000     0.862140600000     0.703344000000     0.036418   
H50      H      0.279436950000     0.289145150000     0.163528100000     0.036449   
H50      H      0.279436950000     0.289145150000     0.663528100000     0.036449   
H50      H      0.279436950000     0.789145150000     0.163528100000     0.036449   
H50      H      0.279436950000     0.789145150000     0.663528100000     0.036449   
H50      H      0.779436950000     0.289145150000     0.163528100000     0.036449   
H50      H      0.779436950000     0.289145150000     0.663528100000     0.036449   
H50      H      0.779436950000     0.789145150000     0.163528100000     0.036449   
H50      H      0.779436950000     0.789145150000     0.663528100000     0.036449   
H51      H      0.363416970000     0.274792050000     0.182752310000     0.065894   
H51      H      0.363416970000     0.274792050000     0.682752310000     0.065894   
H51      H      0.363416970000     0.774792050000     0.182752310000     0.065894   
H51      H      0.363416970000     0.774792050000     0.682752310000     0.065894   
H51      H      0.863416970000     0.274792050000     0.182752310000     0.065894   
H51      H      0.863416970000     0.274792050000     0.682752310000     0.065894   
H51      H      0.863416970000     0.774792050000     0.182752310000     0.065894   
H51      H      0.863416970000     0.774792050000     0.682752310000     0.065894   
H52      H      0.354537450000     0.289410235000     0.135131285000     0.057867   
H52      H      0.354537450000     0.289410235000     0.635131285000     0.057867   
H52      H      0.354537450000     0.789410235000     0.135131285000     0.057867   
H52      H      0.354537450000     0.789410235000     0.635131285000     0.057867   
H52      H      0.854537450000     0.289410235000     0.135131285000     0.057867   
H52      H      0.854537450000     0.289410235000     0.635131285000     0.057867   
H52      H      0.854537450000     0.789410235000     0.135131285000     0.057867   
H52      H      0.854537450000     0.789410235000     0.635131285000     0.057867   
H53      H      0.022790915000     0.433162870000     0.083594210000     0.053268   
H53      H      0.022790915000     0.433162870000     0.583594210000     0.053268   
H53      H      0.022790915000     0.933162870000     0.083594210000     0.053268   
H53      H      0.022790915000     0.933162870000     0.583594210000     0.053268   
H53      H      0.522790915000     0.433162870000     0.083594210000     0.053268   
H53      H      0.522790915000     0.433162870000     0.583594210000     0.053268   
H53      H      0.522790915000     0.933162870000     0.083594210000     0.053268   
H53      H      0.522790915000     0.933162870000     0.583594210000     0.053268   
H54      H      0.004810265000     0.446992900000     0.130712120000     0.058408   
H54      H      0.004810265000     0.446992900000     0.630712120000     0.058408   
H54      H      0.004810265000     0.946992900000     0.130712120000     0.058408   
H54      H      0.004810265000     0.946992900000     0.630712120000     0.058408   
H54      H      0.504810265000     0.446992900000     0.130712120000     0.058408   
H54      H      0.504810265000     0.446992900000     0.630712120000     0.058408   
H54      H      0.504810265000     0.946992900000     0.130712120000     0.058408   
H54      H      0.504810265000     0.946992900000     0.630712120000     0.058408   
H55      H      0.128553910000     0.388052525000     0.100495585000     0.058479   
H55      H      0.128553910000     0.388052525000     0.600495585000     0.058479   
H55      H      0.128553910000     0.888052525000     0.100495585000     0.058479   
H55      H      0.128553910000     0.888052525000     0.600495585000     0.058479   
H55      H      0.628553910000     0.388052525000     0.100495585000     0.058479   
H55      H      0.628553910000     0.388052525000     0.600495585000     0.058479   
H55      H      0.628553910000     0.888052525000     0.100495585000     0.058479   
H55      H      0.628553910000     0.888052525000     0.600495585000     0.058479   
H56      H      0.113627105000     0.401339530000     0.148795935000     0.066997   
H56      H      0.113627105000     0.401339530000     0.648795935000     0.066997   
H56      H      0.113627105000     0.901339530000     0.148795935000     0.066997   
H56      H      0.113627105000     0.901339530000     0.648795935000     0.066997   
H56      H      0.613627105000     0.401339530000     0.148795935000     0.066997   
H56      H      0.613627105000     0.401339530000     0.648795935000     0.066997   
H56      H      0.613627105000     0.901339530000     0.148795935000     0.066997   
H56      H      0.613627105000     0.901339530000     0.648795935000     0.066997   
H57      H      0.499452920000     0.352889750000     0.140939235000     0.146085   
H57      H      0.499452920000     0.352889750000     0.640939235000     0.146085   
H57      H      0.499452920000     0.852889750000     0.140939235000     0.146085   
H57      H      0.499452920000     0.852889750000     0.640939235000     0.146085   
H57      H      0.999452920000     0.352889750000     0.140939235000     0.146085   
H57      H      0.999452920000     0.352889750000     0.640939235000     0.146085   
H57      H      0.999452920000     0.852889750000     0.140939235000     0.146085   
H57      H      0.999452920000     0.852889750000     0.640939235000     0.146085   
H58      H      0.070425965000     0.314523300000     0.127140050000     0.201568   
H58      H      0.070425965000     0.314523300000     0.627140050000     0.201568   
H58      H      0.070425965000     0.814523300000     0.127140050000     0.201568   
H58      H      0.070425965000     0.814523300000     0.627140050000     0.201568   
H58      H      0.570425965000     0.314523300000     0.127140050000     0.201568   
H58      H      0.570425965000     0.314523300000     0.627140050000     0.201568   
H58      H      0.570425965000     0.814523300000     0.127140050000     0.201568   
H58      H      0.570425965000     0.814523300000     0.627140050000     0.201568   
H59      H      0.014407100000     0.339329000000     0.092469030000     0.091953   
H59      H      0.014407100000     0.339329000000     0.592469030000     0.091953   
H59      H      0.014407100000     0.839329000000     0.092469030000     0.091953   
H59      H      0.014407100000     0.839329000000     0.592469030000     0.091953   
H59      H      0.514407100000     0.339329000000     0.092469030000     0.091953   
H59      H      0.514407100000     0.339329000000     0.592469030000     0.091953   
H59      H      0.514407100000     0.839329000000     0.092469030000     0.091953   
H59      H      0.514407100000     0.839329000000     0.592469030000     0.091953   
H60      H      0.048581460000     0.077810765000     0.096734875000     0.094248   
H60      H      0.048581460000     0.077810765000     0.596734875000     0.094248   
H60      H      0.048581460000     0.577810765000     0.096734875000     0.094248   
H60      H      0.048581460000     0.577810765000     0.596734875000     0.094248   
H60      H      0.548581460000     0.077810765000     0.096734875000     0.094248   
H60      H      0.548581460000     0.077810765000     0.596734875000     0.094248   
H60      H      0.548581460000     0.577810765000     0.096734875000     0.094248   
H60      H      0.548581460000     0.577810765000     0.596734875000     0.094248   
H61      H      0.025276315000     0.122866450000     0.133842735000     0.032      
H61      H      0.025276315000     0.122866450000     0.633842735000     0.032      
H61      H      0.025276315000     0.622866450000     0.133842735000     0.032      
H61      H      0.025276315000     0.622866450000     0.633842735000     0.032      
H61      H      0.525276315000     0.122866450000     0.133842735000     0.032      
H61      H      0.525276315000     0.122866450000     0.633842735000     0.032      
H61      H      0.525276315000     0.622866450000     0.133842735000     0.032      
H61      H      0.525276315000     0.622866450000     0.633842735000     0.032      
H62      H      0.425347800000     0.066186430000     0.075356545000     0.039555   
H62      H      0.425347800000     0.066186430000     0.575356545000     0.039555   
H62      H      0.425347800000     0.566186430000     0.075356545000     0.039555   
H62      H      0.425347800000     0.566186430000     0.575356545000     0.039555   
H62      H      0.925347800000     0.066186430000     0.075356545000     0.039555   
H62      H      0.925347800000     0.066186430000     0.575356545000     0.039555   
H62      H      0.925347800000     0.566186430000     0.075356545000     0.039555   
H62      H      0.925347800000     0.566186430000     0.575356545000     0.039555   
H63      H      0.399987220000     0.108787060000     0.112831985000     0.028621   
H63      H      0.399987220000     0.108787060000     0.612831985000     0.028621   
H63      H      0.399987220000     0.608787060000     0.112831985000     0.028621   
H63      H      0.399987220000     0.608787060000     0.612831985000     0.028621   
H63      H      0.899987220000     0.108787060000     0.112831985000     0.028621   
H63      H      0.899987220000     0.108787060000     0.612831985000     0.028621   
H63      H      0.899987220000     0.608787060000     0.112831985000     0.028621   
H63      H      0.899987220000     0.608787060000     0.612831985000     0.028621   
H64      H      0.474120950000     0.178923250000     0.088371940000     0.053094   
H64      H      0.474120950000     0.178923250000     0.588371940000     0.053094   
H64      H      0.474120950000     0.678923250000     0.088371940000     0.053094   
H64      H      0.474120950000     0.678923250000     0.588371940000     0.053094   
H64      H      0.974120950000     0.178923250000     0.088371940000     0.053094   
H64      H      0.974120950000     0.178923250000     0.588371940000     0.053094   
H64      H      0.974120950000     0.678923250000     0.088371940000     0.053094   
H64      H      0.974120950000     0.678923250000     0.588371940000     0.053094   
H65      H      0.406231000000     0.153662980000     0.056036505000     0.030095   
H65      H      0.406231000000     0.153662980000     0.556036505000     0.030095   
H65      H      0.406231000000     0.653662980000     0.056036505000     0.030095   
H65      H      0.406231000000     0.653662980000     0.556036505000     0.030095   
H65      H      0.906231000000     0.153662980000     0.056036505000     0.030095   
H65      H      0.906231000000     0.153662980000     0.556036505000     0.030095   
H65      H      0.906231000000     0.653662980000     0.056036505000     0.030095   
H65      H      0.906231000000     0.653662980000     0.556036505000     0.030095   
H66      H      0.494591920000     0.135696230000     0.049840430000     0.100441   
H66      H      0.494591920000     0.135696230000     0.549840430000     0.100441   
H66      H      0.494591920000     0.635696230000     0.049840430000     0.100441   
H66      H      0.494591920000     0.635696230000     0.549840430000     0.100441   
H66      H      0.994591920000     0.135696230000     0.049840430000     0.100441   
H66      H      0.994591920000     0.135696230000     0.549840430000     0.100441   
H66      H      0.994591920000     0.635696230000     0.049840430000     0.100441   
H66      H      0.994591920000     0.635696230000     0.549840430000     0.100441   
H67      H      0.490803750000     0.039323745000     0.250972700000     0.059431   
H67      H      0.490803750000     0.039323745000     0.750972700000     0.059431   
H67      H      0.490803750000     0.539323745000     0.250972700000     0.059431   
H67      H      0.490803750000     0.539323745000     0.750972700000     0.059431   
H67      H      0.990803750000     0.039323745000     0.250972700000     0.059431   
H67      H      0.990803750000     0.039323745000     0.750972700000     0.059431   
H67      H      0.990803750000     0.539323745000     0.250972700000     0.059431   
H67      H      0.990803750000     0.539323745000     0.750972700000     0.059431   
H68      H      0.423143325000     0.040067075000     0.215058210000     0.198134   
H68      H      0.423143325000     0.040067075000     0.715058210000     0.198134   
H68      H      0.423143325000     0.540067075000     0.215058210000     0.198134   
H68      H      0.423143325000     0.540067075000     0.715058210000     0.198134   
H68      H      0.923143325000     0.040067075000     0.215058210000     0.198134   
H68      H      0.923143325000     0.040067075000     0.715058210000     0.198134   
H68      H      0.923143325000     0.540067075000     0.215058210000     0.198134   
H68      H      0.923143325000     0.540067075000     0.715058210000     0.198134   
H69      H      0.463107300000     0.128287970000     0.273050900000     0.277093   
H69      H      0.463107300000     0.128287970000     0.773050900000     0.277093   
H69      H      0.463107300000     0.628287970000     0.273050900000     0.277093   
H69      H      0.463107300000     0.628287970000     0.773050900000     0.277093   
H69      H      0.963107300000     0.128287970000     0.273050900000     0.277093   
H69      H      0.963107300000     0.128287970000     0.773050900000     0.277093   
H69      H      0.963107300000     0.628287970000     0.273050900000     0.277093   
H69      H      0.963107300000     0.628287970000     0.773050900000     0.277093   
H70      H      0.391579050000     0.125336230000     0.239380835000     0.065744   
H70      H      0.391579050000     0.125336230000     0.739380835000     0.065744   
H70      H      0.391579050000     0.625336230000     0.239380835000     0.065744   
H70      H      0.391579050000     0.625336230000     0.739380835000     0.065744   
H70      H      0.891579050000     0.125336230000     0.239380835000     0.065744   
H70      H      0.891579050000     0.125336230000     0.739380835000     0.065744   
H70      H      0.891579050000     0.625336230000     0.239380835000     0.065744   
H70      H      0.891579050000     0.625336230000     0.739380835000     0.065744   
H71      H      0.338308575000     0.050739350000     0.268535850000     0.040428   
H71      H      0.338308575000     0.050739350000     0.768535850000     0.040428   
H71      H      0.338308575000     0.550739350000     0.268535850000     0.040428   
H71      H      0.338308575000     0.550739350000     0.768535850000     0.040428   
H71      H      0.838308575000     0.050739350000     0.268535850000     0.040428   
H71      H      0.838308575000     0.050739350000     0.768535850000     0.040428   
H71      H      0.838308575000     0.550739350000     0.268535850000     0.040428   
H71      H      0.838308575000     0.550739350000     0.768535850000     0.040428   
H72      H      0.352567200000     0.104813400000     0.301434425000    -0.485291   
H72      H      0.352567200000     0.104813400000     0.801434425000    -0.485291   
H72      H      0.352567200000     0.604813400000     0.301434425000    -0.485291   
H72      H      0.352567200000     0.604813400000     0.801434425000    -0.485291   
H72      H      0.852567200000     0.104813400000     0.301434425000    -0.485291   
H72      H      0.852567200000     0.104813400000     0.801434425000    -0.485291   
H72      H      0.852567200000     0.604813400000     0.301434425000    -0.485291   
H72      H      0.852567200000     0.604813400000     0.801434425000    -0.485291   
H73      H      0.410662980000     0.053334235000     0.302090600000    -0.126893   
H73      H      0.410662980000     0.053334235000     0.802090600000    -0.126893   
H73      H      0.410662980000     0.553334235000     0.302090600000    -0.126893   
H73      H      0.410662980000     0.553334235000     0.802090600000    -0.126893   
H73      H      0.910662980000     0.053334235000     0.302090600000    -0.126893   
H73      H      0.910662980000     0.053334235000     0.802090600000    -0.126893   
H73      H      0.910662980000     0.553334235000     0.302090600000    -0.126893   
H73      H      0.910662980000     0.553334235000     0.802090600000    -0.126893   
H74      H      0.401622200000     0.491058450000     0.271238400000     0.128514   
H74      H      0.401622200000     0.491058450000     0.771238400000     0.128514   
H74      H      0.401622200000     0.991058450000     0.271238400000     0.128514   
H74      H      0.401622200000     0.991058450000     0.771238400000     0.128514   
H74      H      0.901622200000     0.491058450000     0.271238400000     0.128514   
H74      H      0.901622200000     0.491058450000     0.771238400000     0.128514   
H74      H      0.901622200000     0.991058450000     0.271238400000     0.128514   
H74      H      0.901622200000     0.991058450000     0.771238400000     0.128514   
H75      H      0.343197675000     0.034565210000     0.253442465000     2.06571    
H75      H      0.343197675000     0.034565210000     0.753442465000     2.06571    
H75      H      0.343197675000     0.534565210000     0.253442465000     2.06571    
H75      H      0.343197675000     0.534565210000     0.753442465000     2.06571    
H75      H      0.843197675000     0.034565210000     0.253442465000     2.06571    
H75      H      0.843197675000     0.034565210000     0.753442465000     2.06571    
H75      H      0.843197675000     0.534565210000     0.253442465000     2.06571    
H75      H      0.843197675000     0.534565210000     0.753442465000     2.06571    
H76      H      0.448994250000     0.475985170000     0.206562860000     0.038595   
H76      H      0.448994250000     0.475985170000     0.706562860000     0.038595   
H76      H      0.448994250000     0.975985170000     0.206562860000     0.038595   
H76      H      0.448994250000     0.975985170000     0.706562860000     0.038595   
H76      H      0.948994250000     0.475985170000     0.206562860000     0.038595   
H76      H      0.948994250000     0.475985170000     0.706562860000     0.038595   
H76      H      0.948994250000     0.975985170000     0.206562860000     0.038595   
H76      H      0.948994250000     0.975985170000     0.706562860000     0.038595   
H77      H      0.396514800000     0.026468100000     0.192308900000     0.445792   
H77      H      0.396514800000     0.026468100000     0.692308900000     0.445792   
H77      H      0.396514800000     0.526468100000     0.192308900000     0.445792   
H77      H      0.396514800000     0.526468100000     0.692308900000     0.445792   
H77      H      0.896514800000     0.026468100000     0.192308900000     0.445792   
H77      H      0.896514800000     0.026468100000     0.692308900000     0.445792   
H77      H      0.896514800000     0.526468100000     0.192308900000     0.445792   
H77      H      0.896514800000     0.526468100000     0.692308900000     0.445792   
H78      H      0.457163850000     0.086354970000     0.240624635000    -0.11237    
H78      H      0.457163850000     0.086354970000     0.740624635000    -0.11237    
H78      H      0.457163850000     0.586354970000     0.240624635000    -0.11237    
H78      H      0.457163850000     0.586354970000     0.740624635000    -0.11237    
H78      H      0.957163850000     0.086354970000     0.240624635000    -0.11237    
H78      H      0.957163850000     0.086354970000     0.740624635000    -0.11237    
H78      H      0.957163850000     0.586354970000     0.240624635000    -0.11237    
H78      H      0.957163850000     0.586354970000     0.740624635000    -0.11237    
H79      H      0.016682210000     0.058215975000     0.208915325000     0.039067   
H79      H      0.016682210000     0.058215975000     0.708915325000     0.039067   
H79      H      0.016682210000     0.558215975000     0.208915325000     0.039067   
H79      H      0.016682210000     0.558215975000     0.708915325000     0.039067   
H79      H      0.516682210000     0.058215975000     0.208915325000     0.039067   
H79      H      0.516682210000     0.058215975000     0.708915325000     0.039067   
H79      H      0.516682210000     0.558215975000     0.208915325000     0.039067   
H79      H      0.516682210000     0.558215975000     0.708915325000     0.039067   
H80      H      0.010815380000     0.035724580000     0.254402250000    -0.063915   
H80      H      0.010815380000     0.035724580000     0.754402250000    -0.063915   
H80      H      0.010815380000     0.535724580000     0.254402250000    -0.063915   
H80      H      0.010815380000     0.535724580000     0.754402250000    -0.063915   
H80      H      0.510815380000     0.035724580000     0.254402250000    -0.063915   
H80      H      0.510815380000     0.035724580000     0.754402250000    -0.063915   
H80      H      0.510815380000     0.535724580000     0.254402250000    -0.063915   
H80      H      0.510815380000     0.535724580000     0.754402250000    -0.063915   
C81      C      0.489783675000     0.440190650000     0.397818000000    -0.137503   
C81      C      0.489783675000     0.440190650000     0.897818000000    -0.137503   
C81      C      0.489783675000     0.940190650000     0.397818000000    -0.137503   
C81      C      0.489783675000     0.940190650000     0.897818000000    -0.137503   
C81      C      0.989783675000     0.440190650000     0.397818000000    -0.137503   
C81      C      0.989783675000     0.440190650000     0.897818000000    -0.137503   
C81      C      0.989783675000     0.940190650000     0.397818000000    -0.137503   
C81      C      0.989783675000     0.940190650000     0.897818000000    -0.137503   
C82      C      0.453358750000     0.024164615000     0.480367050000     0.019292   
C82      C      0.453358750000     0.024164615000     0.980367050000     0.019292   
C82      C      0.453358750000     0.524164615000     0.480367050000     0.019292   
C82      C      0.453358750000     0.524164615000     0.980367050000     0.019292   
C82      C      0.953358750000     0.024164615000     0.480367050000     0.019292   
C82      C      0.953358750000     0.024164615000     0.980367050000     0.019292   
C82      C      0.953358750000     0.524164615000     0.480367050000     0.019292   
C82      C      0.953358750000     0.524164615000     0.980367050000     0.019292   
C83      C      0.063136635000     0.448255200000     0.397745670000    -0.025107   
C83      C      0.063136635000     0.448255200000     0.897745670000    -0.025107   
C83      C      0.063136635000     0.948255200000     0.397745670000    -0.025107   
C83      C      0.063136635000     0.948255200000     0.897745670000    -0.025107   
C83      C      0.563136635000     0.448255200000     0.397745670000    -0.025107   
C83      C      0.563136635000     0.448255200000     0.897745670000    -0.025107   
C83      C      0.563136635000     0.948255200000     0.397745670000    -0.025107   
C83      C      0.563136635000     0.948255200000     0.897745670000    -0.025107   
C84      C      0.380530050000     0.016429725000     0.480868950000     0.11505    
C84      C      0.380530050000     0.016429725000     0.980868950000     0.11505    
C84      C      0.380530050000     0.516429725000     0.480868950000     0.11505    
C84      C      0.380530050000     0.516429725000     0.980868950000     0.11505    
C84      C      0.880530050000     0.016429725000     0.480868950000     0.11505    
C84      C      0.880530050000     0.016429725000     0.980868950000     0.11505    
C84      C      0.880530050000     0.516429725000     0.480868950000     0.11505    
C84      C      0.880530050000     0.516429725000     0.980868950000     0.11505    
C85      C      0.063578725000     0.001933990000     0.452453500000     0.281594   
C85      C      0.063578725000     0.001933990000     0.952453500000     0.281594   
C85      C      0.063578725000     0.501933990000     0.452453500000     0.281594   
C85      C      0.063578725000     0.501933990000     0.952453500000     0.281594   
C85      C      0.563578725000     0.001933990000     0.452453500000     0.281594   
C85      C      0.563578725000     0.001933990000     0.952453500000     0.281594   
C85      C      0.563578725000     0.501933990000     0.452453500000     0.281594   
C85      C      0.563578725000     0.501933990000     0.952453500000     0.281594   
C86      C      0.379853785000     0.459246280000     0.427929100000     0.329075   
C86      C      0.379853785000     0.459246280000     0.927929100000     0.329075   
C86      C      0.379853785000     0.959246280000     0.427929100000     0.329075   
C86      C      0.379853785000     0.959246280000     0.927929100000     0.329075   
C86      C      0.879853785000     0.459246280000     0.427929100000     0.329075   
C86      C      0.879853785000     0.459246280000     0.927929100000     0.329075   
C86      C      0.879853785000     0.959246280000     0.427929100000     0.329075   
C86      C      0.879853785000     0.959246280000     0.927929100000     0.329075   
C87      C      0.490328730000     0.497017050000     0.453401400000     0.127494   
C87      C      0.490328730000     0.497017050000     0.953401400000     0.127494   
C87      C      0.490328730000     0.997017050000     0.453401400000     0.127494   
C87      C      0.490328730000     0.997017050000     0.953401400000     0.127494   
C87      C      0.990328730000     0.497017050000     0.453401400000     0.127494   
C87      C      0.990328730000     0.497017050000     0.953401400000     0.127494   
C87      C      0.990328730000     0.997017050000     0.453401400000     0.127494   
C87      C      0.990328730000     0.997017050000     0.953401400000     0.127494   
C88      C      0.453157100000     0.465181650000     0.426127375000     0.100241   
C88      C      0.453157100000     0.465181650000     0.926127375000     0.100241   
C88      C      0.453157100000     0.965181650000     0.426127375000     0.100241   
C88      C      0.453157100000     0.965181650000     0.926127375000     0.100241   
C88      C      0.953157100000     0.465181650000     0.426127375000     0.100241   
C88      C      0.953157100000     0.465181650000     0.926127375000     0.100241   
C88      C      0.953157100000     0.965181650000     0.426127375000     0.100241   
C88      C      0.953157100000     0.965181650000     0.926127375000     0.100241   
C89      C      0.483081200000     0.367515265000     0.356935235000    -0.065732   
C89      C      0.483081200000     0.367515265000     0.856935235000    -0.065732   
C89      C      0.483081200000     0.867515265000     0.356935235000    -0.065732   
C89      C      0.483081200000     0.867515265000     0.856935235000    -0.065732   
C89      C      0.983081200000     0.367515265000     0.356935235000    -0.065732   
C89      C      0.983081200000     0.367515265000     0.856935235000    -0.065732   
C89      C      0.983081200000     0.867515265000     0.356935235000    -0.065732   
C89      C      0.983081200000     0.867515265000     0.856935235000    -0.065732   
C90      C      0.010786890000     0.372501375000     0.318426670000    -0.0504     
C90      C      0.010786890000     0.372501375000     0.818426670000    -0.0504     
C90      C      0.010786890000     0.872501375000     0.318426670000    -0.0504     
C90      C      0.010786890000     0.872501375000     0.818426670000    -0.0504     
C90      C      0.510786890000     0.372501375000     0.318426670000    -0.0504     
C90      C      0.510786890000     0.372501375000     0.818426670000    -0.0504     
C90      C      0.510786890000     0.872501375000     0.318426670000    -0.0504     
C90      C      0.510786890000     0.872501375000     0.818426670000    -0.0504     
C91      C      0.046621860000     0.324897500000     0.304913650000     0.023268   
C91      C      0.046621860000     0.324897500000     0.804913650000     0.023268   
C91      C      0.046621860000     0.824897500000     0.304913650000     0.023268   
C91      C      0.046621860000     0.824897500000     0.804913650000     0.023268   
C91      C      0.546621860000     0.324897500000     0.304913650000     0.023268   
C91      C      0.546621860000     0.324897500000     0.804913650000     0.023268   
C91      C      0.546621860000     0.824897500000     0.304913650000     0.023268   
C91      C      0.546621860000     0.824897500000     0.804913650000     0.023268   
C92      C      0.475549130000     0.106984375000     0.002685965000     0.07011    
C92      C      0.475549130000     0.106984375000     0.502685965000     0.07011    
C92      C      0.475549130000     0.606984375000     0.002685965000     0.07011    
C92      C      0.475549130000     0.606984375000     0.502685965000     0.07011    
C92      C      0.975549130000     0.106984375000     0.002685965000     0.07011    
C92      C      0.975549130000     0.106984375000     0.502685965000     0.07011    
C92      C      0.975549130000     0.606984375000     0.002685965000     0.07011    
C92      C      0.975549130000     0.606984375000     0.502685965000     0.07011    
C93      C      0.023235085000     0.128694175000     0.474322530000    -0.022892   
C93      C      0.023235085000     0.128694175000     0.974322530000    -0.022892   
C93      C      0.023235085000     0.628694175000     0.474322530000    -0.022892   
C93      C      0.023235085000     0.628694175000     0.974322530000    -0.022892   
C93      C      0.523235085000     0.128694175000     0.474322530000    -0.022892   
C93      C      0.523235085000     0.128694175000     0.974322530000    -0.022892   
C93      C      0.523235085000     0.628694175000     0.474322530000    -0.022892   
C93      C      0.523235085000     0.628694175000     0.974322530000    -0.022892   
C94      C      0.014238475000     0.185401740000     0.471954350000    -0.059799   
C94      C      0.014238475000     0.185401740000     0.971954350000    -0.059799   
C94      C      0.014238475000     0.685401740000     0.471954350000    -0.059799   
C94      C      0.014238475000     0.685401740000     0.971954350000    -0.059799   
C94      C      0.514238475000     0.185401740000     0.471954350000    -0.059799   
C94      C      0.514238475000     0.185401740000     0.971954350000    -0.059799   
C94      C      0.514238475000     0.685401740000     0.471954350000    -0.059799   
C94      C      0.514238475000     0.685401740000     0.971954350000    -0.059799   
C95      C      0.248948040000     0.377338700000     0.445619880000    -0.113166   
C95      C      0.248948040000     0.377338700000     0.945619880000    -0.113166   
C95      C      0.248948040000     0.877338700000     0.445619880000    -0.113166   
C95      C      0.248948040000     0.877338700000     0.945619880000    -0.113166   
C95      C      0.748948040000     0.377338700000     0.445619880000    -0.113166   
C95      C      0.748948040000     0.377338700000     0.945619880000    -0.113166   
C95      C      0.748948040000     0.877338700000     0.445619880000    -0.113166   
C95      C      0.748948040000     0.877338700000     0.945619880000    -0.113166   
C96      C      0.189750330000     0.086747565000     0.434793500000    -0.064378   
C96      C      0.189750330000     0.086747565000     0.934793500000    -0.064378   
C96      C      0.189750330000     0.586747565000     0.434793500000    -0.064378   
C96      C      0.189750330000     0.586747565000     0.934793500000    -0.064378   
C96      C      0.689750330000     0.086747565000     0.434793500000    -0.064378   
C96      C      0.689750330000     0.086747565000     0.934793500000    -0.064378   
C96      C      0.689750330000     0.586747565000     0.434793500000    -0.064378   
C96      C      0.689750330000     0.586747565000     0.934793500000    -0.064378   
C97      C      0.304480165000     0.248469980000     0.419578900000    -0.07801    
C97      C      0.304480165000     0.248469980000     0.919578900000    -0.07801    
C97      C      0.304480165000     0.748469980000     0.419578900000    -0.07801    
C97      C      0.304480165000     0.748469980000     0.919578900000    -0.07801    
C97      C      0.804480165000     0.248469980000     0.419578900000    -0.07801    
C97      C      0.804480165000     0.248469980000     0.919578900000    -0.07801    
C97      C      0.804480165000     0.748469980000     0.419578900000    -0.07801    
C97      C      0.804480165000     0.748469980000     0.919578900000    -0.07801    
C98      C      0.134349720000     0.216128530000     0.460103275000    -0.138457   
C98      C      0.134349720000     0.216128530000     0.960103275000    -0.138457   
C98      C      0.134349720000     0.716128530000     0.460103275000    -0.138457   
C98      C      0.134349720000     0.716128530000     0.960103275000    -0.138457   
C98      C      0.634349720000     0.216128530000     0.460103275000    -0.138457   
C98      C      0.634349720000     0.216128530000     0.960103275000    -0.138457   
C98      C      0.634349720000     0.716128530000     0.460103275000    -0.138457   
C98      C      0.634349720000     0.716128530000     0.960103275000    -0.138457   
C99      C      0.306070120000     0.300633800000     0.425437480000    -0.023456   
C99      C      0.306070120000     0.300633800000     0.925437480000    -0.023456   
C99      C      0.306070120000     0.800633800000     0.425437480000    -0.023456   
C99      C      0.306070120000     0.800633800000     0.925437480000    -0.023456   
C99      C      0.806070120000     0.300633800000     0.425437480000    -0.023456   
C99      C      0.806070120000     0.300633800000     0.925437480000    -0.023456   
C99      C      0.806070120000     0.800633800000     0.425437480000    -0.023456   
C99      C      0.806070120000     0.800633800000     0.925437480000    -0.023456   
C100     C      0.132367165000     0.163805840000     0.454270350000    -0.159496   
C100     C      0.132367165000     0.163805840000     0.954270350000    -0.159496   
C100     C      0.132367165000     0.663805840000     0.454270350000    -0.159496   
C100     C      0.132367165000     0.663805840000     0.954270350000    -0.159496   
C100     C      0.632367165000     0.163805840000     0.454270350000    -0.159496   
C100     C      0.632367165000     0.163805840000     0.954270350000    -0.159496   
C100     C      0.632367165000     0.663805840000     0.454270350000    -0.159496   
C100     C      0.632367165000     0.663805840000     0.954270350000    -0.159496   
C101     C      0.207791060000     0.294725200000     0.464970700000     0.065631   
C101     C      0.207791060000     0.294725200000     0.964970700000     0.065631   
C101     C      0.207791060000     0.794725200000     0.464970700000     0.065631   
C101     C      0.207791060000     0.794725200000     0.964970700000     0.065631   
C101     C      0.707791060000     0.294725200000     0.464970700000     0.065631   
C101     C      0.707791060000     0.294725200000     0.964970700000     0.065631   
C101     C      0.707791060000     0.794725200000     0.464970700000     0.065631   
C101     C      0.707791060000     0.794725200000     0.964970700000     0.065631   
C102     C      0.231827410000     0.169272960000     0.415475280000    -0.127555   
C102     C      0.231827410000     0.169272960000     0.915475280000    -0.127555   
C102     C      0.231827410000     0.669272960000     0.415475280000    -0.127555   
C102     C      0.231827410000     0.669272960000     0.915475280000    -0.127555   
C102     C      0.731827410000     0.169272960000     0.415475280000    -0.127555   
C102     C      0.731827410000     0.169272960000     0.915475280000    -0.127555   
C102     C      0.731827410000     0.669272960000     0.415475280000    -0.127555   
C102     C      0.731827410000     0.669272960000     0.915475280000    -0.127555   
C103     C      0.195433365000     0.243759840000     0.452027170000    -0.237683   
C103     C      0.195433365000     0.243759840000     0.952027170000    -0.237683   
C103     C      0.195433365000     0.743759840000     0.452027170000    -0.237683   
C103     C      0.195433365000     0.743759840000     0.952027170000    -0.237683   
C103     C      0.695433365000     0.243759840000     0.452027170000    -0.237683   
C103     C      0.695433365000     0.243759840000     0.952027170000    -0.237683   
C103     C      0.695433365000     0.743759840000     0.452027170000    -0.237683   
C103     C      0.695433365000     0.743759840000     0.952027170000    -0.237683   
C104     C      0.244187770000     0.220280335000     0.428372550000     0.018947   
C104     C      0.244187770000     0.220280335000     0.928372550000     0.018947   
C104     C      0.244187770000     0.720280335000     0.428372550000     0.018947   
C104     C      0.244187770000     0.720280335000     0.928372550000     0.018947   
C104     C      0.744187770000     0.220280335000     0.428372550000     0.018947   
C104     C      0.744187770000     0.220280335000     0.928372550000     0.018947   
C104     C      0.744187770000     0.720280335000     0.428372550000     0.018947   
C104     C      0.744187770000     0.720280335000     0.928372550000     0.018947   
C105     C      0.183843730000     0.140576915000     0.434290080000    -0.082357   
C105     C      0.183843730000     0.140576915000     0.934290080000    -0.082357   
C105     C      0.183843730000     0.640576915000     0.434290080000    -0.082357   
C105     C      0.183843730000     0.640576915000     0.934290080000    -0.082357   
C105     C      0.683843730000     0.140576915000     0.434290080000    -0.082357   
C105     C      0.683843730000     0.140576915000     0.934290080000    -0.082357   
C105     C      0.683843730000     0.640576915000     0.434290080000    -0.082357   
C105     C      0.683843730000     0.640576915000     0.934290080000    -0.082357   
C106     C      0.255019800000     0.323580200000     0.445866525000    -0.142005   
C106     C      0.255019800000     0.323580200000     0.945866525000    -0.142005   
C106     C      0.255019800000     0.823580200000     0.445866525000    -0.142005   
C106     C      0.255019800000     0.823580200000     0.945866525000    -0.142005   
C106     C      0.755019800000     0.323580200000     0.445866525000    -0.142005   
C106     C      0.755019800000     0.323580200000     0.945866525000    -0.142005   
C106     C      0.755019800000     0.823580200000     0.445866525000    -0.142005   
C106     C      0.755019800000     0.823580200000     0.945866525000    -0.142005   
C107     C      0.261827800000     0.146588100000     0.379930350000    -0.066427   
C107     C      0.261827800000     0.146588100000     0.879930350000    -0.066427   
C107     C      0.261827800000     0.646588100000     0.379930350000    -0.066427   
C107     C      0.261827800000     0.646588100000     0.879930350000    -0.066427   
C107     C      0.761827800000     0.146588100000     0.379930350000    -0.066427   
C107     C      0.761827800000     0.146588100000     0.879930350000    -0.066427   
C107     C      0.761827800000     0.646588100000     0.379930350000    -0.066427   
C107     C      0.761827800000     0.646588100000     0.879930350000    -0.066427   
C108     C      0.204563020000     0.126449400000     0.351675100000    -0.038002   
C108     C      0.204563020000     0.126449400000     0.851675100000    -0.038002   
C108     C      0.204563020000     0.626449400000     0.351675100000    -0.038002   
C108     C      0.204563020000     0.626449400000     0.851675100000    -0.038002   
C108     C      0.704563020000     0.126449400000     0.351675100000    -0.038002   
C108     C      0.704563020000     0.126449400000     0.851675100000    -0.038002   
C108     C      0.704563020000     0.626449400000     0.351675100000    -0.038002   
C108     C      0.704563020000     0.626449400000     0.851675100000    -0.038002   
C109     C      0.178075250000     0.317309250000     0.000631570000    -0.040631   
C109     C      0.178075250000     0.317309250000     0.500631570000    -0.040631   
C109     C      0.178075250000     0.817309250000     0.000631570000    -0.040631   
C109     C      0.178075250000     0.817309250000     0.500631570000    -0.040631   
C109     C      0.678075250000     0.317309250000     0.000631570000    -0.040631   
C109     C      0.678075250000     0.317309250000     0.500631570000    -0.040631   
C109     C      0.678075250000     0.817309250000     0.000631570000    -0.040631   
C109     C      0.678075250000     0.817309250000     0.500631570000    -0.040631   
C110     C      0.235344635000     0.338533650000     0.028517785000    -0.149917   
C110     C      0.235344635000     0.338533650000     0.528517785000    -0.149917   
C110     C      0.235344635000     0.838533650000     0.028517785000    -0.149917   
C110     C      0.235344635000     0.838533650000     0.528517785000    -0.149917   
C110     C      0.735344635000     0.338533650000     0.028517785000    -0.149917   
C110     C      0.735344635000     0.338533650000     0.528517785000    -0.149917   
C110     C      0.735344635000     0.838533650000     0.028517785000    -0.149917   
C110     C      0.735344635000     0.838533650000     0.528517785000    -0.149917   
C111     C      0.403520675000     0.211002765000     0.435592150000    -0.003137   
C111     C      0.403520675000     0.211002765000     0.935592150000    -0.003137   
C111     C      0.403520675000     0.711002765000     0.435592150000    -0.003137   
C111     C      0.403520675000     0.711002765000     0.935592150000    -0.003137   
C111     C      0.903520675000     0.211002765000     0.435592150000    -0.003137   
C111     C      0.903520675000     0.211002765000     0.935592150000    -0.003137   
C111     C      0.903520675000     0.711002765000     0.435592150000    -0.003137   
C111     C      0.903520675000     0.711002765000     0.935592150000    -0.003137   
C112     C      0.465980530000     0.183680715000     0.420842850000    -0.279112   
C112     C      0.465980530000     0.183680715000     0.920842850000    -0.279112   
C112     C      0.465980530000     0.683680715000     0.420842850000    -0.279112   
C112     C      0.465980530000     0.683680715000     0.920842850000    -0.279112   
C112     C      0.965980530000     0.183680715000     0.420842850000    -0.279112   
C112     C      0.965980530000     0.183680715000     0.920842850000    -0.279112   
C112     C      0.965980530000     0.683680715000     0.420842850000    -0.279112   
C112     C      0.965980530000     0.683680715000     0.920842850000    -0.279112   
C113     C      0.013038695000     0.167853815000     0.452331150000    -0.045244   
C113     C      0.013038695000     0.167853815000     0.952331150000    -0.045244   
C113     C      0.013038695000     0.667853815000     0.452331150000    -0.045244   
C113     C      0.013038695000     0.667853815000     0.952331150000    -0.045244   
C113     C      0.513038695000     0.167853815000     0.452331150000    -0.045244   
C113     C      0.513038695000     0.167853815000     0.952331150000    -0.045244   
C113     C      0.513038695000     0.667853815000     0.452331150000    -0.045244   
C113     C      0.513038695000     0.667853815000     0.952331150000    -0.045244   
C114     C      0.024541685000     0.241321415000     0.446410120000    -0.023403   
C114     C      0.024541685000     0.241321415000     0.946410120000    -0.023403   
C114     C      0.024541685000     0.741321415000     0.446410120000    -0.023403   
C114     C      0.024541685000     0.741321415000     0.946410120000    -0.023403   
C114     C      0.524541685000     0.241321415000     0.446410120000    -0.023403   
C114     C      0.524541685000     0.241321415000     0.946410120000    -0.023403   
C114     C      0.524541685000     0.741321415000     0.446410120000    -0.023403   
C114     C      0.524541685000     0.741321415000     0.946410120000    -0.023403   
C115     C      0.039565110000     0.283893885000     0.420874475000    -0.253188   
C115     C      0.039565110000     0.283893885000     0.920874475000    -0.253188   
C115     C      0.039565110000     0.783893885000     0.420874475000    -0.253188   
C115     C      0.039565110000     0.783893885000     0.920874475000    -0.253188   
C115     C      0.539565110000     0.283893885000     0.420874475000    -0.253188   
C115     C      0.539565110000     0.283893885000     0.920874475000    -0.253188   
C115     C      0.539565110000     0.783893885000     0.420874475000    -0.253188   
C115     C      0.539565110000     0.783893885000     0.920874475000    -0.253188   
C116     C      0.478984250000     0.288476400000     0.393231930000    -0.277405   
C116     C      0.478984250000     0.288476400000     0.893231930000    -0.277405   
C116     C      0.478984250000     0.788476400000     0.393231930000    -0.277405   
C116     C      0.478984250000     0.788476400000     0.893231930000    -0.277405   
C116     C      0.978984250000     0.288476400000     0.393231930000    -0.277405   
C116     C      0.978984250000     0.288476400000     0.893231930000    -0.277405   
C116     C      0.978984250000     0.788476400000     0.393231930000    -0.277405   
C116     C      0.978984250000     0.788476400000     0.893231930000    -0.277405   
C117     C      0.039882690000     0.347511550000     0.120286740000     0.320924   
C117     C      0.039882690000     0.347511550000     0.620286740000     0.320924   
C117     C      0.039882690000     0.847511550000     0.120286740000     0.320924   
C117     C      0.039882690000     0.847511550000     0.620286740000     0.320924   
C117     C      0.539882690000     0.347511550000     0.120286740000     0.320924   
C117     C      0.539882690000     0.347511550000     0.620286740000     0.320924   
C117     C      0.539882690000     0.847511550000     0.120286740000     0.320924   
C117     C      0.539882690000     0.847511550000     0.620286740000     0.320924   
C118     C      0.007470370000     0.088198245000     0.116221285000     0.3069     
C118     C      0.007470370000     0.088198245000     0.616221285000     0.3069     
C118     C      0.007470370000     0.588198245000     0.116221285000     0.3069     
C118     C      0.007470370000     0.588198245000     0.616221285000     0.3069     
C118     C      0.507470370000     0.088198245000     0.116221285000     0.3069     
C118     C      0.507470370000     0.088198245000     0.616221285000     0.3069     
C118     C      0.507470370000     0.588198245000     0.116221285000     0.3069     
C118     C      0.507470370000     0.588198245000     0.616221285000     0.3069     
C119     C      0.442276330000     0.099966945000     0.093834860000     0.719101   
C119     C      0.442276330000     0.099966945000     0.593834860000     0.719101   
C119     C      0.442276330000     0.599966945000     0.093834860000     0.719101   
C119     C      0.442276330000     0.599966945000     0.593834860000     0.719101   
C119     C      0.942276330000     0.099966945000     0.093834860000     0.719101   
C119     C      0.942276330000     0.099966945000     0.593834860000     0.719101   
C119     C      0.942276330000     0.599966945000     0.093834860000     0.719101   
C119     C      0.942276330000     0.599966945000     0.593834860000     0.719101   
C120     C      0.455425200000     0.144875950000     0.070580480000     0.089276   
C120     C      0.455425200000     0.144875950000     0.570580480000     0.089276   
C120     C      0.455425200000     0.644875950000     0.070580480000     0.089276   
C120     C      0.455425200000     0.644875950000     0.570580480000     0.089276   
C120     C      0.955425200000     0.144875950000     0.070580480000     0.089276   
C120     C      0.955425200000     0.144875950000     0.570580480000     0.089276   
C120     C      0.955425200000     0.644875950000     0.070580480000     0.089276   
C120     C      0.955425200000     0.644875950000     0.570580480000     0.089276   
C121     C      0.462007100000     0.064091085000     0.232596200000    -0.182989   
C121     C      0.462007100000     0.064091085000     0.732596200000    -0.182989   
C121     C      0.462007100000     0.564091085000     0.232596200000    -0.182989   
C121     C      0.462007100000     0.564091085000     0.732596200000    -0.182989   
C121     C      0.962007100000     0.064091085000     0.232596200000    -0.182989   
C121     C      0.962007100000     0.064091085000     0.732596200000    -0.182989   
C121     C      0.962007100000     0.564091085000     0.232596200000    -0.182989   
C121     C      0.962007100000     0.564091085000     0.732596200000    -0.182989   
C122     C      0.424297500000     0.102382125000     0.257034800000     0.187665   
C122     C      0.424297500000     0.102382125000     0.757034800000     0.187665   
C122     C      0.424297500000     0.602382125000     0.257034800000     0.187665   
C122     C      0.424297500000     0.602382125000     0.757034800000     0.187665   
C122     C      0.924297500000     0.102382125000     0.257034800000     0.187665   
C122     C      0.924297500000     0.102382125000     0.757034800000     0.187665   
C122     C      0.924297500000     0.602382125000     0.257034800000     0.187665   
C122     C      0.924297500000     0.602382125000     0.757034800000     0.187665   
C123     C      0.378636000000     0.076000750000     0.283878900000    -0.012698   
C123     C      0.378636000000     0.076000750000     0.783878900000    -0.012698   
C123     C      0.378636000000     0.576000750000     0.283878900000    -0.012698   
C123     C      0.378636000000     0.576000750000     0.783878900000    -0.012698   
C123     C      0.878636000000     0.076000750000     0.283878900000    -0.012698   
C123     C      0.878636000000     0.076000750000     0.783878900000    -0.012698   
C123     C      0.878636000000     0.576000750000     0.283878900000    -0.012698   
C123     C      0.878636000000     0.576000750000     0.783878900000    -0.012698   
C124     C      0.372220700000     0.000006080000     0.245833600000    -0.506402   
C124     C      0.372220700000     0.000006080000     0.745833600000    -0.506402   
C124     C      0.372220700000     0.500006080000     0.245833600000    -0.506402   
C124     C      0.372220700000     0.500006080000     0.745833600000    -0.506402   
C124     C      0.872220700000     0.000006080000     0.245833600000    -0.506402   
C124     C      0.872220700000     0.000006080000     0.745833600000    -0.506402   
C124     C      0.872220700000     0.500006080000     0.245833600000    -0.506402   
C124     C      0.872220700000     0.500006080000     0.745833600000    -0.506402   
C125     C      0.424187780000     0.011331795000     0.216243000000     0.228708   
C125     C      0.424187780000     0.011331795000     0.716243000000     0.228708   
C125     C      0.424187780000     0.511331795000     0.216243000000     0.228708   
C125     C      0.424187780000     0.511331795000     0.716243000000     0.228708   
C125     C      0.924187780000     0.011331795000     0.216243000000     0.228708   
C125     C      0.924187780000     0.011331795000     0.716243000000     0.228708   
C125     C      0.924187780000     0.511331795000     0.216243000000     0.228708   
C125     C      0.924187780000     0.511331795000     0.716243000000     0.228708   
C126     C      0.480640800000     0.050375580000     0.231095835000    -0.046086   
C126     C      0.480640800000     0.050375580000     0.731095835000    -0.046086   
C126     C      0.480640800000     0.550375580000     0.231095835000    -0.046086   
C126     C      0.480640800000     0.550375580000     0.731095835000    -0.046086   
C126     C      0.980640800000     0.050375580000     0.231095835000    -0.046086   
C126     C      0.980640800000     0.050375580000     0.731095835000    -0.046086   
C126     C      0.980640800000     0.550375580000     0.231095835000    -0.046086   
C126     C      0.980640800000     0.550375580000     0.731095835000    -0.046086   
C127     C      0.236373035000     0.484385050000     0.113914630000     0.147426   
C127     C      0.236373035000     0.484385050000     0.613914630000     0.147426   
C127     C      0.236373035000     0.984385050000     0.113914630000     0.147426   
C127     C      0.236373035000     0.984385050000     0.613914630000     0.147426   
C127     C      0.736373035000     0.484385050000     0.113914630000     0.147426   
C127     C      0.736373035000     0.484385050000     0.613914630000     0.147426   
C127     C      0.736373035000     0.984385050000     0.113914630000     0.147426   
C127     C      0.736373035000     0.984385050000     0.613914630000     0.147426   
C128     C      0.198736050000     0.483982535000     0.266318085000    -0.078135   
C128     C      0.198736050000     0.483982535000     0.766318085000    -0.078135   
C128     C      0.198736050000     0.983982535000     0.266318085000    -0.078135   
C128     C      0.198736050000     0.983982535000     0.766318085000    -0.078135   
C128     C      0.698736050000     0.483982535000     0.266318085000    -0.078135   
C128     C      0.698736050000     0.483982535000     0.766318085000    -0.078135   
C128     C      0.698736050000     0.983982535000     0.266318085000    -0.078135   
C128     C      0.698736050000     0.983982535000     0.766318085000    -0.078135   
C129     C      0.102317460000     0.008949995000     0.145144150000     0.034178   
C129     C      0.102317460000     0.008949995000     0.645144150000     0.034178   
C129     C      0.102317460000     0.508949995000     0.145144150000     0.034178   
C129     C      0.102317460000     0.508949995000     0.645144150000     0.034178   
C129     C      0.602317460000     0.008949995000     0.145144150000     0.034178   
C129     C      0.602317460000     0.008949995000     0.645144150000     0.034178   
C129     C      0.602317460000     0.508949995000     0.145144150000     0.034178   
C129     C      0.602317460000     0.508949995000     0.645144150000     0.034178   
C130     C      0.049840455000     0.038922310000     0.159656465000    -0.067286   
C130     C      0.049840455000     0.038922310000     0.659656465000    -0.067286   
C130     C      0.049840455000     0.538922310000     0.159656465000    -0.067286   
C130     C      0.049840455000     0.538922310000     0.659656465000    -0.067286   
C130     C      0.549840455000     0.038922310000     0.159656465000    -0.067286   
C130     C      0.549840455000     0.038922310000     0.659656465000    -0.067286   
C130     C      0.549840455000     0.538922310000     0.159656465000    -0.067286   
C130     C      0.549840455000     0.538922310000     0.659656465000    -0.067286   
C131     C      0.055479975000     0.058334590000     0.196447385000    -0.140668   
C131     C      0.055479975000     0.058334590000     0.696447385000    -0.140668   
C131     C      0.055479975000     0.558334590000     0.196447385000    -0.140668   
C131     C      0.055479975000     0.558334590000     0.696447385000    -0.140668   
C131     C      0.555479975000     0.058334590000     0.196447385000    -0.140668   
C131     C      0.555479975000     0.058334590000     0.696447385000    -0.140668   
C131     C      0.555479975000     0.558334590000     0.196447385000    -0.140668   
C131     C      0.555479975000     0.558334590000     0.696447385000    -0.140668   
C132     C      0.113510965000     0.047842085000     0.218718600000     0.26951    
C132     C      0.113510965000     0.047842085000     0.718718600000     0.26951    
C132     C      0.113510965000     0.547842085000     0.218718600000     0.26951    
C132     C      0.113510965000     0.547842085000     0.718718600000     0.26951    
C132     C      0.613510965000     0.047842085000     0.218718600000     0.26951    
C132     C      0.613510965000     0.047842085000     0.718718600000     0.26951    
C132     C      0.613510965000     0.547842085000     0.218718600000     0.26951    
C132     C      0.613510965000     0.547842085000     0.718718600000     0.26951    
C133     C      0.162868050000     0.013833940000     0.205175800000    -0.16395    
C133     C      0.162868050000     0.013833940000     0.705175800000    -0.16395    
C133     C      0.162868050000     0.513833940000     0.205175800000    -0.16395    
C133     C      0.162868050000     0.513833940000     0.705175800000    -0.16395    
C133     C      0.662868050000     0.013833940000     0.205175800000    -0.16395    
C133     C      0.662868050000     0.013833940000     0.705175800000    -0.16395    
C133     C      0.662868050000     0.513833940000     0.205175800000    -0.16395    
C133     C      0.662868050000     0.513833940000     0.705175800000    -0.16395    
C134     C      0.162910340000     0.001605750000     0.167049080000    -0.51272    
C134     C      0.162910340000     0.001605750000     0.667049080000    -0.51272    
C134     C      0.162910340000     0.501605750000     0.167049080000    -0.51272    
C134     C      0.162910340000     0.501605750000     0.667049080000    -0.51272    
C134     C      0.662910340000     0.001605750000     0.167049080000    -0.51272    
C134     C      0.662910340000     0.001605750000     0.667049080000    -0.51272    
C134     C      0.662910340000     0.501605750000     0.167049080000    -0.51272    
C134     C      0.662910340000     0.501605750000     0.667049080000    -0.51272    
C135     C      0.222734100000     0.480837400000     0.152229415000    -1.79296    
C135     C      0.222734100000     0.480837400000     0.652229415000    -1.79296    
C135     C      0.222734100000     0.980837400000     0.152229415000    -1.79296    
C135     C      0.222734100000     0.980837400000     0.652229415000    -1.79296    
C135     C      0.722734100000     0.480837400000     0.152229415000    -1.79296    
C135     C      0.722734100000     0.480837400000     0.652229415000    -1.79296    
C135     C      0.722734100000     0.980837400000     0.152229415000    -1.79296    
C135     C      0.722734100000     0.980837400000     0.652229415000    -1.79296    
C136     C      0.275508285000     0.463277430000     0.174881535000    -0.359446   
C136     C      0.275508285000     0.463277430000     0.674881535000    -0.359446   
C136     C      0.275508285000     0.963277430000     0.174881535000    -0.359446   
C136     C      0.275508285000     0.963277430000     0.674881535000    -0.359446   
C136     C      0.775508285000     0.463277430000     0.174881535000    -0.359446   
C136     C      0.775508285000     0.463277430000     0.674881535000    -0.359446   
C136     C      0.775508285000     0.963277430000     0.174881535000    -0.359446   
C136     C      0.775508285000     0.963277430000     0.674881535000    -0.359446   
C137     C      0.272908300000     0.471818100000     0.212821140000    -0.196367   
C137     C      0.272908300000     0.471818100000     0.712821140000    -0.196367   
C137     C      0.272908300000     0.971818100000     0.212821140000    -0.196367   
C137     C      0.272908300000     0.971818100000     0.712821140000    -0.196367   
C137     C      0.772908300000     0.471818100000     0.212821140000    -0.196367   
C137     C      0.772908300000     0.471818100000     0.712821140000    -0.196367   
C137     C      0.772908300000     0.971818100000     0.212821140000    -0.196367   
C137     C      0.772908300000     0.971818100000     0.712821140000    -0.196367   
C138     C      0.213137000000     0.492395850000     0.228079065000    -0.17741    
C138     C      0.213137000000     0.492395850000     0.728079065000    -0.17741    
C138     C      0.213137000000     0.992395850000     0.228079065000    -0.17741    
C138     C      0.213137000000     0.992395850000     0.728079065000    -0.17741    
C138     C      0.713137000000     0.492395850000     0.228079065000    -0.17741    
C138     C      0.713137000000     0.492395850000     0.728079065000    -0.17741    
C138     C      0.713137000000     0.992395850000     0.228079065000    -0.17741    
C138     C      0.713137000000     0.992395850000     0.728079065000    -0.17741    
C139     C      0.315026150000     0.388691500000     0.149060265000    -0.351628   
C139     C      0.315026150000     0.388691500000     0.649060265000    -0.351628   
C139     C      0.315026150000     0.888691500000     0.149060265000    -0.351628   
C139     C      0.315026150000     0.888691500000     0.649060265000    -0.351628   
C139     C      0.815026150000     0.388691500000     0.149060265000    -0.351628   
C139     C      0.815026150000     0.388691500000     0.649060265000    -0.351628   
C139     C      0.815026150000     0.888691500000     0.149060265000    -0.351628   
C139     C      0.815026150000     0.888691500000     0.649060265000    -0.351628   
C140     C      0.351406275000     0.354407815000     0.175051360000    -0.34807    
C140     C      0.351406275000     0.354407815000     0.675051360000    -0.34807    
C140     C      0.351406275000     0.854407815000     0.175051360000    -0.34807    
C140     C      0.351406275000     0.854407815000     0.675051360000    -0.34807    
C140     C      0.851406275000     0.354407815000     0.175051360000    -0.34807    
C140     C      0.851406275000     0.354407815000     0.675051360000    -0.34807    
C140     C      0.851406275000     0.854407815000     0.175051360000    -0.34807    
C140     C      0.851406275000     0.854407815000     0.675051360000    -0.34807    
C141     C      0.336092770000     0.298473625000     0.163263470000    -0.353402   
C141     C      0.336092770000     0.298473625000     0.663263470000    -0.353402   
C141     C      0.336092770000     0.798473625000     0.163263470000    -0.353402   
C141     C      0.336092770000     0.798473625000     0.663263470000    -0.353402   
C141     C      0.836092770000     0.298473625000     0.163263470000    -0.353402   
C141     C      0.836092770000     0.298473625000     0.663263470000    -0.353402   
C141     C      0.836092770000     0.798473625000     0.163263470000    -0.353402   
C141     C      0.836092770000     0.798473625000     0.663263470000    -0.353402   
C142     C      0.047820225000     0.441289550000     0.111441050000    -0.444431   
C142     C      0.047820225000     0.441289550000     0.611441050000    -0.444431   
C142     C      0.047820225000     0.941289550000     0.111441050000    -0.444431   
C142     C      0.047820225000     0.941289550000     0.611441050000    -0.444431   
C142     C      0.547820225000     0.441289550000     0.111441050000    -0.444431   
C142     C      0.547820225000     0.441289550000     0.611441050000    -0.444431   
C142     C      0.547820225000     0.941289550000     0.111441050000    -0.444431   
C142     C      0.547820225000     0.941289550000     0.611441050000    -0.444431   
C143     C      0.088059395000     0.394794150000     0.120895670000    -0.231836   
C143     C      0.088059395000     0.394794150000     0.620895670000    -0.231836   
C143     C      0.088059395000     0.894794150000     0.120895670000    -0.231836   
C143     C      0.088059395000     0.894794150000     0.620895670000    -0.231836   
C143     C      0.588059395000     0.394794150000     0.120895670000    -0.231836   
C143     C      0.588059395000     0.394794150000     0.620895670000    -0.231836   
C143     C      0.588059395000     0.894794150000     0.120895670000    -0.231836   
C143     C      0.588059395000     0.894794150000     0.620895670000    -0.231836   
N144     N      0.345061500000     0.484233000000     0.455265015000    -0.244812   
N144     N      0.345061500000     0.484233000000     0.955265015000    -0.244812   
N144     N      0.345061500000     0.984233000000     0.455265015000    -0.244812   
N144     N      0.345061500000     0.984233000000     0.955265015000    -0.244812   
N144     N      0.845061500000     0.484233000000     0.455265015000    -0.244812   
N144     N      0.845061500000     0.484233000000     0.955265015000    -0.244812   
N144     N      0.845061500000     0.984233000000     0.455265015000    -0.244812   
N144     N      0.845061500000     0.984233000000     0.955265015000    -0.244812   
N145     N      0.098515810000     0.477644650000     0.425036965000    -0.15353    
N145     N      0.098515810000     0.477644650000     0.925036965000    -0.15353    
N145     N      0.098515810000     0.977644650000     0.425036965000    -0.15353    
N145     N      0.098515810000     0.977644650000     0.925036965000    -0.15353    
N145     N      0.598515810000     0.477644650000     0.425036965000    -0.15353    
N145     N      0.598515810000     0.477644650000     0.925036965000    -0.15353    
N145     N      0.598515810000     0.977644650000     0.425036965000    -0.15353    
N145     N      0.598515810000     0.977644650000     0.925036965000    -0.15353    
Cl146    Cl     0.130755035000     0.086955310000     0.259563325000    -0.223686   
Cl146    Cl     0.130755035000     0.086955310000     0.759563325000    -0.223686   
Cl146    Cl     0.130755035000     0.586955310000     0.259563325000    -0.223686   
Cl146    Cl     0.130755035000     0.586955310000     0.759563325000    -0.223686   
Cl146    Cl     0.630755035000     0.086955310000     0.259563325000    -0.223686   
Cl146    Cl     0.630755035000     0.086955310000     0.759563325000    -0.223686   
Cl146    Cl     0.630755035000     0.586955310000     0.259563325000    -0.223686   
Cl146    Cl     0.630755035000     0.586955310000     0.759563325000    -0.223686   
O147     O      0.451889635000     0.412868400000     0.369093030000    -0.230397   
O147     O      0.451889635000     0.412868400000     0.869093030000    -0.230397   
O147     O      0.451889635000     0.912868400000     0.369093030000    -0.230397   
O147     O      0.451889635000     0.912868400000     0.869093030000    -0.230397   
O147     O      0.951889635000     0.412868400000     0.369093030000    -0.230397   
O147     O      0.951889635000     0.412868400000     0.869093030000    -0.230397   
O147     O      0.951889635000     0.912868400000     0.369093030000    -0.230397   
O147     O      0.951889635000     0.912868400000     0.869093030000    -0.230397   
O148     O      0.488932250000     0.055584670000     0.007464290000    -0.674463   
O148     O      0.488932250000     0.055584670000     0.507464290000    -0.674463   
O148     O      0.488932250000     0.555584670000     0.007464290000    -0.674463   
O148     O      0.488932250000     0.555584670000     0.507464290000    -0.674463   
O148     O      0.988932250000     0.055584670000     0.007464290000    -0.674463   
O148     O      0.988932250000     0.055584670000     0.507464290000    -0.674463   
O148     O      0.988932250000     0.555584670000     0.007464290000    -0.674463   
O148     O      0.988932250000     0.555584670000     0.507464290000    -0.674463   
O149     O      0.187621965000     0.395004000000     0.444221350000    -0.15028    
O149     O      0.187621965000     0.395004000000     0.944221350000    -0.15028    
O149     O      0.187621965000     0.895004000000     0.444221350000    -0.15028    
O149     O      0.187621965000     0.895004000000     0.944221350000    -0.15028    
O149     O      0.687621965000     0.395004000000     0.444221350000    -0.15028    
O149     O      0.687621965000     0.395004000000     0.944221350000    -0.15028    
O149     O      0.687621965000     0.895004000000     0.444221350000    -0.15028    
O149     O      0.687621965000     0.895004000000     0.944221350000    -0.15028    
O150     O      0.251068650000     0.069063530000     0.436377600000    -0.238181   
O150     O      0.251068650000     0.069063530000     0.936377600000    -0.238181   
O150     O      0.251068650000     0.569063530000     0.436377600000    -0.238181   
O150     O      0.251068650000     0.569063530000     0.936377600000    -0.238181   
O150     O      0.751068650000     0.069063530000     0.436377600000    -0.238181   
O150     O      0.751068650000     0.069063530000     0.936377600000    -0.238181   
O150     O      0.751068650000     0.569063530000     0.436377600000    -0.238181   
O150     O      0.751068650000     0.569063530000     0.936377600000    -0.238181   
O151     O      0.304829100000     0.405618815000     0.446206570000    -0.180227   
O151     O      0.304829100000     0.405618815000     0.946206570000    -0.180227   
O151     O      0.304829100000     0.905618815000     0.446206570000    -0.180227   
O151     O      0.304829100000     0.905618815000     0.946206570000    -0.180227   
O151     O      0.804829100000     0.405618815000     0.446206570000    -0.180227   
O151     O      0.804829100000     0.405618815000     0.946206570000    -0.180227   
O151     O      0.804829100000     0.905618815000     0.446206570000    -0.180227   
O151     O      0.804829100000     0.905618815000     0.946206570000    -0.180227   
O152     O      0.133861540000     0.058448665000     0.434392350000    -0.248225   
O152     O      0.133861540000     0.058448665000     0.934392350000    -0.248225   
O152     O      0.133861540000     0.558448665000     0.434392350000    -0.248225   
O152     O      0.133861540000     0.558448665000     0.934392350000    -0.248225   
O152     O      0.633861540000     0.058448665000     0.434392350000    -0.248225   
O152     O      0.633861540000     0.058448665000     0.934392350000    -0.248225   
O152     O      0.633861540000     0.558448665000     0.434392350000    -0.248225   
O152     O      0.633861540000     0.558448665000     0.934392350000    -0.248225   
O153     O      0.362281235000     0.226017400000     0.405677100000    -0.174619   
O153     O      0.362281235000     0.226017400000     0.905677100000    -0.174619   
O153     O      0.362281235000     0.726017400000     0.405677100000    -0.174619   
O153     O      0.362281235000     0.726017400000     0.905677100000    -0.174619   
O153     O      0.862281235000     0.226017400000     0.405677100000    -0.174619   
O153     O      0.862281235000     0.226017400000     0.905677100000    -0.174619   
O153     O      0.862281235000     0.726017400000     0.405677100000    -0.174619   
O153     O      0.862281235000     0.726017400000     0.905677100000    -0.174619   
O154     O      0.077529795000     0.239783435000     0.474326750000     1.15155    
O154     O      0.077529795000     0.239783435000     0.974326750000     1.15155    
O154     O      0.077529795000     0.739783435000     0.474326750000     1.15155    
O154     O      0.077529795000     0.739783435000     0.974326750000     1.15155    
O154     O      0.577529795000     0.239783435000     0.474326750000     1.15155    
O154     O      0.577529795000     0.239783435000     0.974326750000     1.15155    
O154     O      0.577529795000     0.739783435000     0.474326750000     1.15155    
O154     O      0.577529795000     0.739783435000     0.974326750000     1.15155    
O155     O      0.332418400000     0.440341350000     0.160027785000     0.940859   
O155     O      0.332418400000     0.440341350000     0.660027785000     0.940859   
O155     O      0.332418400000     0.940341350000     0.160027785000     0.940859   
O155     O      0.332418400000     0.940341350000     0.660027785000     0.940859   
O155     O      0.832418400000     0.440341350000     0.160027785000     0.940859   
O155     O      0.832418400000     0.440341350000     0.660027785000     0.940859   
O155     O      0.832418400000     0.940341350000     0.160027785000     0.940859   
O155     O      0.832418400000     0.940341350000     0.660027785000     0.940859   
O156     O      0.249106720000     0.480824680000     0.289426030000    -0.004824   
O156     O      0.249106720000     0.480824680000     0.789426030000    -0.004824   
O156     O      0.249106720000     0.980824680000     0.289426030000    -0.004824   
O156     O      0.249106720000     0.980824680000     0.789426030000    -0.004824   
O156     O      0.749106720000     0.480824680000     0.289426030000    -0.004824   
O156     O      0.749106720000     0.480824680000     0.789426030000    -0.004824   
O156     O      0.749106720000     0.980824680000     0.289426030000    -0.004824   
O156     O      0.749106720000     0.980824680000     0.789426030000    -0.004824   
O157     O      0.136149035000     0.477629250000     0.276248250000    -0.617518   
O157     O      0.136149035000     0.477629250000     0.776248250000    -0.617518   
O157     O      0.136149035000     0.977629250000     0.276248250000    -0.617518   
O157     O      0.136149035000     0.977629250000     0.776248250000    -0.617518   
O157     O      0.636149035000     0.477629250000     0.276248250000    -0.617518   
O157     O      0.636149035000     0.477629250000     0.776248250000    -0.617518   
O157     O      0.636149035000     0.977629250000     0.276248250000    -0.617518   
O157     O      0.636149035000     0.977629250000     0.776248250000    -0.617518   
O158     O      0.092814190000     0.484880900000     0.110185860000     0.025779   
O158     O      0.092814190000     0.484880900000     0.610185860000     0.025779   
O158     O      0.092814190000     0.984880900000     0.110185860000     0.025779   
O158     O      0.092814190000     0.984880900000     0.610185860000     0.025779   
O158     O      0.592814190000     0.484880900000     0.110185860000     0.025779   
O158     O      0.592814190000     0.484880900000     0.610185860000     0.025779   
O158     O      0.592814190000     0.984880900000     0.110185860000     0.025779   
O158     O      0.592814190000     0.984880900000     0.610185860000     0.025779   
O159     O      0.491464950000     0.047776935000     0.138215990000     0.036841   
O159     O      0.491464950000     0.047776935000     0.638215990000     0.036841   
O159     O      0.491464950000     0.547776935000     0.138215990000     0.036841   
O159     O      0.491464950000     0.547776935000     0.638215990000     0.036841   
O159     O      0.991464950000     0.047776935000     0.138215990000     0.036841   
O159     O      0.991464950000     0.047776935000     0.638215990000     0.036841   
O159     O      0.991464950000     0.547776935000     0.138215990000     0.036841   
O159     O      0.991464950000     0.547776935000     0.638215990000     0.036841   
O160     O      0.006319380000     0.090650560000     0.209796190000     0.023118   
O160     O      0.006319380000     0.090650560000     0.709796190000     0.023118   
O160     O      0.006319380000     0.590650560000     0.209796190000     0.023118   
O160     O      0.006319380000     0.590650560000     0.709796190000     0.023118   
O160     O      0.506319380000     0.090650560000     0.209796190000     0.023118   
O160     O      0.506319380000     0.090650560000     0.709796190000     0.023118   
O160     O      0.506319380000     0.590650560000     0.209796190000     0.023118   
O160     O      0.506319380000     0.590650560000     0.709796190000     0.023118   
O161     O      0.327817025000     0.457129715000     0.234670310000     0.001628   
O161     O      0.327817025000     0.457129715000     0.734670310000     0.001628   
O161     O      0.327817025000     0.957129715000     0.234670310000     0.001628   
O161     O      0.327817025000     0.957129715000     0.734670310000     0.001628   
O161     O      0.827817025000     0.457129715000     0.234670310000     0.001628   
O161     O      0.827817025000     0.457129715000     0.734670310000     0.001628   
O161     O      0.827817025000     0.957129715000     0.234670310000     0.001628   
O161     O      0.827817025000     0.957129715000     0.734670310000     0.001628   
O162     O      0.241249485000     0.443367420000     0.093911080000     0.04916    
O162     O      0.241249485000     0.443367420000     0.593911080000     0.04916    
O162     O      0.241249485000     0.943367420000     0.093911080000     0.04916    
O162     O      0.241249485000     0.943367420000     0.593911080000     0.04916    
O162     O      0.741249485000     0.443367420000     0.093911080000     0.04916    
O162     O      0.741249485000     0.443367420000     0.593911080000     0.04916    
O162     O      0.741249485000     0.943367420000     0.093911080000     0.04916    
O162     O      0.741249485000     0.943367420000     0.593911080000     0.04916    
O163     O      0.245067360000     0.028216960000     0.101172330000     0.044439   
O163     O      0.245067360000     0.028216960000     0.601172330000     0.044439   
O163     O      0.245067360000     0.528216960000     0.101172330000     0.044439   
O163     O      0.245067360000     0.528216960000     0.601172330000     0.044439   
O163     O      0.745067360000     0.028216960000     0.101172330000     0.044439   
O163     O      0.745067360000     0.028216960000     0.601172330000     0.044439   
O163     O      0.745067360000     0.528216960000     0.101172330000     0.044439   
O163     O      0.745067360000     0.528216960000     0.601172330000     0.044439   


