data_I
_chemical_name_common  'results/nh3_target_10mmol/cif/sample_1'
_cell_length_a  9.13965
_cell_length_b 18.46363
_cell_length_c 24.60342
_cell_angle_alpha 91.95098
_cell_angle_beta  92.78620
_cell_angle_gamma 90.36397
_space_group_name_H-M_alt      'P 1'


loop_
_space_group_symop_operation_xyz
  'x, y, z' 

loop_
_atom_site_label
_atom_site_fract_x
_atom_site_fract_y
_atom_site_fract_z
_atom_site_type_symbol
Cu0   0.48395935 0.4191662 0.047859814    Cu
Cu1   0.18189782 0.41464925 0.038313176    Cu
H2    0.8397653 0.34436458 0.8871635     H
H3    0.95371336 0.7252509 0.76495403     H
H4    0.17327009 0.65267736 0.025214672     H
H5    0.42576408 0.74122834 0.98553556     H
H6    0.9401519 0.5119851 0.7806373     H
H7    0.93857986 0.53516495 0.7095911     H
H8    0.02205259 0.45207316 0.73145866     H
H9    0.21283117 0.5444262 0.7158356     H
H10   0.21379638 0.5207603 0.7859906     H
H11   0.066217385 0.63251734 0.80722225     H
H12   0.054528356 0.65440255 0.7399235     H
H13   0.79538673 0.516618 0.8862226     H
H14   0.8048095 0.42149007 0.9018629     H
H15   0.76292086 0.44795412 0.83299506     H
H16   0.5376493 0.40721706 0.87627894     H
H17   0.5291792 0.5004529 0.85892123     H
H18   0.5940581 0.5397779 0.9554613     H
H19   0.6303747 0.45135418 0.97329766     H
H20   0.95927405 0.73364216 0.64159733     H
H21   0.08704269 0.78658766 0.6051872     H
H22   0.035306484 0.69623655 0.5805673     H
H23   0.28002322 0.68997854 0.6257725     H
H24   0.15320784 0.6445541 0.6628313     H
H25   0.12692279 0.76347834 0.7234329     H
H26   0.261045 0.80365384 0.6898037     H
H27   0.6989823 0.2844621 0.031993628     H
H28   0.5374358 0.23087646 0.04277289     H
H29   0.63908136 0.21460073 0.982603     H
H30   0.4164217 0.28411022 0.95768887     H
H31   0.5774773 0.33630824 0.95060754     H
H32   0.53713983 0.40251094 0.0407207     H
H33   0.4018649 0.34294385 0.053743362     H
C34   0.55869883 0.72375906 0.79742795     C
C35   0.09539823 0.4603044 0.9693018     C
C36   0.4821401 0.6963333 0.84187424     C
C37   0.1516602 0.52612174 0.9504049     C
C38   0.34973902 0.6578409 0.83115125     C
C39   0.30079475 0.5306128 0.9385365     C
C40   0.27719602 0.66749424 0.7801933     C
C41   0.3946324 0.4762378 0.9586165     C
C42   0.33709654  0.71636 0.74223274     C
C43   0.33759248 0.41993937 0.9912213     C
C44   0.12916899 0.6288226 0.7699743     C
C45   0.15025194 0.5487334 0.7533847     C
C46   0.003281208 0.5097581 0.7431552     C
C47   0.5569103 0.4830977 0.94658136     C
C48   0.5838404 0.46196023 0.8868274     C
C49   0.7471024 0.46207312 0.8765029     C
C50   0.22741434 0.74948835 0.7017995     C
C51   0.18597569 0.6994179 0.65153843     C
C52   0.05914279 0.73113084 0.6176339     C
C53   0.4471129 0.37017253 0.019802094     C
C54   0.5081346 0.31214452 0.9808219     C
C55    0.60147 0.25715256 0.011606216     C
S56   0.9201336 0.43309167 0.9402769     S
S57   0.7546317 0.725671 0.8083556     S
S58   0.044498324 0.60577446 0.9569319     S
S59   0.5340595 0.7255142 0.91008025     S
N60   0.48352385 0.7400734 0.7483213     N
N61   0.18656462 0.41196933 0.99631685     N
N62   0.2827594 0.60991424 0.8688282     N
N63   0.36321428 0.5870801 0.9070525     N
O64   0.8109417 0.42509916 0.98340285     O
O65   0.8625859 0.48742786 0.90060294     O
O66   0.9376421 0.35415506 0.90507543     O
O67   0.8016485 0.79376346 0.8397161     O
O68   0.798627 0.6620186 0.84178865     O
O69   0.8496567 0.72001094 0.7521064     O
O70   0.99249434 0.63086575 0.90200555     O
O71   0.9131519 0.59149086 0.9895856     O
O72   0.14478816 0.67203534 0.98919106     O
O73   0.6435071 0.67423034 0.9346815     O
O74   0.599433 0.8004039 0.91110206     O
O75   0.38655582 0.72901666 0.9480819     O
Cu76  0.47702494 0.7451347 0.70600075    Cu
Cu77  0.17850867 0.73517346 0.6943696    Cu
Zn78  0.40296534 0.17055184 0.32642448    Zn
Zn79  0.21933067 0.07226307 0.3930429    Zn
C80   0.62743187 0.72229236 0.7243809     C
C81   0.033797264 0.75724584 0.6772671     C
C82   0.77011997 0.73466116 0.7077284     C
C83   0.8911971 0.7448397 0.69399077     C
O84   0.6107874 0.67361456 0.76069665     O
O85   0.050307035 0.80561817 0.64069045     O
O86   0.14010382 0.7185191 0.69815886     O
O87   0.52099067 0.76071364 0.7032282     O
H88   0.63286614 0.81692684 0.09152221     H
H89   0.736095 0.9819147 0.3521649     H
H90   0.9730481 0.97128826 0.029466279     H
H91   0.8497207 0.9092982 0.99283546     H
H92   0.80108696 0.002423644 0.9997916     H
H93   0.6608737 0.93851566 0.06455314     H
H94   0.799746 0.990085 0.10261055     H
H95   0.9641825 0.9166471 0.33424133     H
H96   0.042388916 0.847928 0.19726346     H
H97   0.13042533 0.8889069 0.25849342     H
H98   0.1987083 0.80537057 0.23015825     H
H99   0.055451155 0.78142214 0.3110167     H
H100  0.97274923 0.740191 0.25011566     H
H101  0.835514 0.9562794 0.27293193     H
H102  0.96116084 0.970315 0.3317101     H
H103  0.9452212 0.03798139 0.28070125     H
H104  0.17282502 0.9660236 0.2716244     H
H105  0.049977824 0.9549059 0.2126624     H
H106  0.95945305 0.83589536 0.2493964     H
H107  0.07529275 0.8531125 0.3079939     H
H108  0.6584692 0.94559515 0.05715321     H
H109  0.5808103 0.032512784 0.07434319     H
H110  0.7253423 0.99617875 0.117717855     H
H111  0.41149858 0.9348505 0.0981533     H
H112  0.48167482 0.9829879 0.15823668     H
H113  0.66298676 0.890755 0.17596084     H
H114  0.62014425 0.83955884 0.11702828     H
H115  0.055799436 0.9206098 0.11699472     H
H116  0.71985006 0.761529 0.23054776     H
H117  0.9829779 0.70652115 0.17466186     H
H118  0.50155985 0.94126344 0.30691352     H
H119  0.7287821 0.7082376 0.13585688     H
C120  0.31334677 0.78859526 0.090811886     C
C121  0.33515626 0.7820907 0.31397843     C
C122  0.83872384 0.8760619 0.099957466     C
C123  0.85801655 0.8333979 0.28210893     C
C124  0.98434514 0.8741491 0.120696776     C
C125  0.3287444 0.8124433 0.26007247     C
C126  0.7237608 0.80913025 0.25760832     C
C127  0.0362032 0.8137383 0.14852239     C
C128  0.59515303 0.8486384 0.2654672     C
C129  0.9440034 0.7535214 0.15329765     C
C130  0.59990865 0.9103269 0.30044854     C
C131  0.79991275 0.754614 0.13180088     C
C132  0.73259604 0.9337601 0.32576478     C
C133  0.74630576 0.8161739 0.10632377     C
C134  0.8614594 0.8963258 0.31588015     C
C135  0.19218846 0.82528275 0.23347446     C
C136  0.3149457 0.8112909 0.14863853     C
C137  0.44801277  0.83502 0.17670369     C
C138  0.7809186 0.94315135 0.073622756     C
C139  0.85611814 0.9572927 0.020874819     C
C140  0.99733156 0.79309756 0.27167466     C
C141  0.098024726 0.8368158 0.23724343     C
C142  0.06645136 0.86025774 0.26363698     C
C143  0.06570797 0.9424931 0.25627214     C
C144  0.9440592 0.9788127 0.28739715     C
C145  0.569195 0.8746093 0.14802712     C
C146  0.5116162 0.94536227 0.12437593     C
C147  0.4573655 0.829294 0.2336192     C
C148  0.62648976 0.98201954 0.09135722     C
C149  0.18311551 0.81590056 0.1767262     C
O150  0.43446872 0.78257006 0.06753544     O
O151  0.21687992 0.75944453 0.33353955     O
O152  0.19221973 0.7749154 0.06382575     O
O153  0.459129 0.76709914 0.3372492     O
H154  0.7837031 0.4128587 0.15578645     H
H155  0.18994276 0.15072072 0.37509525     H
H156  0.3745841 0.2078311  0.32014     H
H157  0.63049996 0.3575736 0.2231317     H
H158  0.5423599 0.2178984 0.17093363     H
H159  0.54808927 0.09188527 0.17183156     H
H160  0.36701527 0.08836856 0.1967753     H
H161  0.52048874 0.11932294 0.24169709     H
H162  0.21712166 0.33448568 0.27482823     H
H163  0.1982671 0.45964265 0.26876312     H
H164  0.27931234 0.45697054 0.20375912     H
H165  0.39201185 0.44272316 0.26543275     H
C166  0.67215484 0.3969999 0.14415485     C
C167  0.16532187 0.15885139 0.33231437     C
C168  0.58521515 0.3660375 0.18235712     C
C169  0.2698218 0.19106016 0.3011948     C
C170  0.4407641 0.34559795 0.16762944     C
C171  0.2382174 0.20183927 0.24585037     C
C172  0.38450482 0.35755873 0.114288725     C
C173  0.10057948 0.1797232 0.22225058     C
C174  0.4761717 0.38974157 0.07705024     C
C175  0.99800354 0.14768331 0.25549382     C
C176  0.3495499 0.31114912 0.20851886     C
C177  0.3498543 0.23747645 0.2131161     C
C178  0.4717381 0.119396746 0.1994419     C
C179  0.28296617 0.4327136 0.24448502     C
N180  0.61776847 0.408168 0.09269706     N
N181  0.03303242 0.13753626 0.3093008     N
N182  0.85878736 0.12375234 0.23262274     N
N183  0.41847607 0.4060773 0.023826081     N
N184  0.44842154 0.19312154 0.18285675     N
N185  0.2527333 0.3556017 0.23952347     N
N186  0.23755856 0.33571002 0.09740976     N
N187  0.06527327 0.18909279 0.1653313     N
O188  0.8485885 0.062337812 0.20518471     O
O189  0.75151205 0.16954112 0.2289019     O
O190  0.30293536 0.44645205 0.018164944     O
O191  0.4709297 0.37443462 0.9810998     O
O192  0.21186902 0.29984906 0.05144998     O
O193  0.12813015 0.3540599 0.12669806     O
O194  0.94025654 0.21648066 0.14942618     O
O195  0.15621664 0.16838215 0.12895226     O
C196  0.9268456 0.05657108 0.40898347     C
C197  0.7063647 0.18876678 0.31253448     C
C198  0.84945995 0.1029699 0.37513125     C
C199  0.7837706 0.14235586 0.34639558     C
O200  0.85516816 0.01177592 0.43604404     O
O201  0.7780421 0.23356195 0.28547388     O
O202  0.5667031 0.1847335 0.30985552     O
O203  0.0665071 0.060604364 0.41166246     O
H204  0.653474 0.4126912 0.49569073     H
H205  0.8667353 0.3659331 0.54879576     H
H206  0.8334635 0.30951086 0.6373632     H
H207  0.584676 0.2971658 0.6719531     H
H208  0.36954972 0.34102646 0.6187624     H
H209  0.9851483 0.45616624 0.56997544     H
H210  0.77017766 0.5002358 0.51636064     H
H211  0.7997089 0.5518955 0.42605087     H
H212  0.04708391 0.56361675 0.39028364     H
H213  0.2646832 0.52461064 0.44444582     H
C214  0.29471618 0.34205058 0.36414555     C
C215  0.3460642 0.52781814 0.70001537     C
C216  0.31686404 0.50449926 0.64482784     C
C217  0.32305306 0.36460382 0.41947514     C
C218  0.2708019 0.45801342 0.5428555     C
C219  0.36713055 0.4101729 0.5216564     C
C220  0.34556928 0.38417533 0.46608672     C
C221  0.29333863 0.48437452 0.59835577     C
C222  0.49565545 0.38182035 0.55376065     C
C223  0.6369562 0.38736886 0.5340199     C
C224  0.75814176 0.36117607 0.56407577     C
C225  0.73945844 0.32925346 0.6139838     C
C226  0.59925276 0.3223799 0.63351536     C
C227  0.4776509 0.34782583 0.6033876     C
C228  0.14118986 0.4855775 0.5107989     C
C229  0.00040942008 0.48003015 0.53101337     C
C230  0.87809026 0.5043497 0.500602     C
C231  0.89475685 0.5338968 0.4497445     C
C232  0.034226585 0.54063857 0.429646     C
C233  0.15719223 0.5177198 0.46029532     C
O234  0.39391413 0.30530602 0.34010518     O
O235  0.24710573 0.564803 0.7240292     O
O236  0.1710062 0.35839108 0.3398844     O
O237  0.47001365 0.511718  0.72425     O
C238  0.0507617 0.40107164 0.053022277     C
C239  0.7739709 0.42268455 0.039680514     C
C240  0.90099066 0.4127279 0.045833167     C
C241  0.62419873 0.4343343 0.032487046     C
O242  0.1367054 0.43637574 0.022579335     O
O243  0.09393036 0.35577852 0.08965006     O
O244  0.58105433 0.4796213 0.9958347     O
O245  0.5382637 0.3989946 0.06292997     O
H246  0.3190719 0.95680517 0.6814903     H
H247  0.15930289 0.9280719 0.5994406     H
H248  0.89918303 0.89388317 0.6085643     H
H249  0.7970718 0.8904806 0.7000188     H
H250  0.9543744 0.9209172 0.78239524     H
H251  0.37407908 0.8073412 0.914467     H
H252  0.54335713 0.7140843 0.94981474     H
H253  0.806032 0.7178782 0.9292007     H
H254  0.9008597 0.8165481 0.87437534     H
H255  0.7338001 0.91130424 0.83993584     H
H256  0.27014634 0.19377515 0.060343146     H
H257  0.091949254 0.21783374 0.1311804     H
H258  0.83310926 0.2443669 0.10485053     H
H259  0.7509441 0.2447347 0.007294655     H
H260  0.9268876 0.21889919 0.9359756     H
H261  0.36353764 0.3448388 0.8323969     H
H262  0.5323786 0.4426322 0.8082983     H
H263  0.78886837 0.44567272 0.84604436     H
H264  0.8782932 0.34935176 0.9068612     H
H265  0.71193814 0.2501304 0.9302095     H
C266  0.31295502 0.31869897 0.9653164     C
C267  0.42942405 0.16465735 0.8733322     C
C268  0.23878554 0.023664773 0.8136892     C
C269  0.4353074 0.98911476 0.8775977     C
C270  0.35045543 0.8323124 0.77901036     C
C271  0.22330162 0.124664225 0.92388505     C
C272  0.424236 0.233187 0.8988231     C
C273  0.24407302 0.9559236 0.7869877     C
C274  0.44050816 0.92056626 0.8521366     C
C275  0.2180109 0.19237989 0.95062554     C
C276  0.31846532 0.24724746 0.9379342     C
C277  0.3449467 0.90377665 0.80637306     C
C278  0.328941 0.11103695 0.88572025     C
C279  0.33444673 0.040021747 0.85851806     C
C280  0.52632403 0.2901965 0.8825897     C
C281  0.47612846 0.34499916 0.8483136     C
C282  0.5711541 0.40057495 0.83486366     C
C283  0.7159079 0.40222713 0.85607237     C
C284  0.7663865 0.34782094 0.89026433     C
C285  0.6722339 0.29164493 0.90327895     C
C286  0.14751963 0.9415778 0.73770106     C
C287  0.20488733 0.9431842 0.6858322     C
C288  0.11499633 0.92657435 0.6393858     C
C289  0.96819735 0.90741515 0.644523     C
C290  0.9105638 0.9056568 0.69608545     C
C291  0.9996266 0.92311406 0.7426029     C
C292  0.5423806 0.86630136 0.87515444     C
C293  0.48917803 0.81018615 0.9060689     C
C294  0.5844975 0.75716305 0.9258516     C
C295  0.7327159 0.7593676 0.91430855     C
C296  0.7862258 0.8150966 0.88349444     C
C297  0.6916209 0.8687468 0.8642054     C
C298  0.110677086 0.2039515 0.99316335     C
C299  0.15670258 0.20404348 0.048452616     C
C300  0.056340467 0.21801755 0.088585734     C
C301  0.9102802 0.2328551 0.07373738     C
C302  0.86391544 0.23290671 0.018734694     C
C303  0.963517 0.21806167 0.9784814     C
O304  0.43378493 0.35102075 0.9811226     O
O305  0.22962487 0.7999864 0.7632107     O
O306  0.47601217 0.8033276 0.7713325     O
O307  0.18739764 0.3476795 0.9730008     O
F308  0.53012127 0.15049994 0.8355479     F
F309  0.1427576 0.07434186 0.795381     F
F310  0.52612245 0.005869096 0.9217235     F
F311  0.12780415 0.0713931 0.93583226     F
H312  0.36125758 0.9506127 0.65545267     H
H313  0.22636814 0.64567137 0.5753212     H
H314  0.06805188 0.55139047 0.52888924     H
H315  0.7994247 0.56837106 0.52000165     H
H316  0.6894262 0.6814994 0.55586874     H
H317  0.84609413 0.7765251 0.60201406     H
H318  0.79489887 0.08786082 0.4563473     H
H319  0.9517489 0.18280292 0.5024976     H
H320  0.8419792 0.29598892 0.5383652     H
H321  0.573382 0.31311214 0.5294701     H
H322  0.41488993 0.21890306 0.4830454     H
H323  0.9512087 0.8865211 0.5222576     H
H324  0.8661057 0.8671137 0.42586416     H
H325  0.9982733 0.7826016 0.3653986     H
H326  0.21635899 0.71724874 0.4014583     H
H327  0.30323756 0.73639023 0.49764928     H
H328  0.33752707 0.12828755 0.56066453     H
H329  0.4238094 0.14724064 0.6569444     H
H330  0.641464 0.08169556 0.6931492     H
H331  0.77388567 0.99722666 0.63273895     H
H332  0.6894074 0.9779998 0.5362673     H
H333  0.44549304 0.9074157 0.24943604     H
H334  0.4550423 0.97048354 0.7869714     H
H335  0.27942678 0.9139626 0.40305212     H
C336  0.18540543 0.8249858 0.5743808     C
C337  0.3728932 0.9769032 0.46910635     C
C338  0.2678994 0.8877099 0.58931315     C
C339  0.33736628 0.9639722 0.41433448     C
C340  0.3034475 0.9006013 0.6440981     C
C341  0.37860927 0.011445403 0.3740048     C
C342  0.2622898 0.8530869 0.68435323     C
C343  0.046505455 0.7155428 0.5960417     C
C344  0.108738855 0.65291154 0.5728935     C
C345  0.01959307 0.5997349 0.54614514     C
C346  0.8682283 0.6094441 0.54091126     C
C347  0.80613726 0.67299104 0.5614681     C
C348  0.8949266 0.7262742 0.58822966     C
C349  0.59460294 0.14894664 0.4623209     C
C350  0.74614996 0.13813734 0.47013223     C
C351  0.8350502 0.19138014 0.49689683     C
C352  0.7730821 0.25495517 0.5174554     C
C353  0.6217492 0.26474214 0.51222223     C
C354  0.53250957 0.21160483 0.4854737     C
C355  0.13255149 0.81239337 0.51680136     C
C356  0.009368681 0.84936976 0.49616674     C
C357  0.9610909 0.83850294 0.4416842     C
C358  0.03559743 0.7908377 0.4075935     C
C359  0.15852733 0.7539766 0.42792803     C
C360  0.20723031 0.7647431 0.48236847     C
C361  0.50819266 0.052234292 0.5416086     C
C362  0.43340304 0.09987807 0.5760097     C
C363  0.48176476 0.11054027 0.63049614     C
C364  0.604456 0.0735656 0.6509139     C
C365  0.67909527 0.02592671 0.6168561     C
C366  0.63118124 0.015168071 0.56232584     C
C367  0.49841762 0.087515235 0.44300434     C
C368  0.14257182 0.7770152 0.6153636     C
C369  0.45546558 0.03960073 0.48401526     C
S370  0.33434036 0.9769147 0.30641204     S
S371  0.30725017 0.88754845 0.75182027     S
N372  0.46008882 0.07416797 0.38795403     N
N373  0.18093543 0.79032785 0.6704138     N
N374  0.33679363 0.9213571 0.5059749     N
N375  0.30399048 0.9432723 0.552456     N
O376  0.2076568 0.9246128 0.3072496     O
O377  0.29270804 0.033723235 0.2666539     O
O378  0.47969097 0.9307927 0.28465733     O
O379  0.17790316 0.9287358 0.77180886     O
O380  0.3502223 0.83079374 0.79144406     O
O381  0.44916236 0.9459543 0.7504857     O
loop_
_geom_bond_atom_site_label_1
_geom_bond_atom_site_label_2
_geom_bond_distance
_geom_bond_site_symmetry_2
_ccdc_geom_bond_type
Cu0   Cu1    2.75980       .     S
Cu0   O84    8.73609   1_554     S
Cu0   N180   1.62514       .     S
Cu0   O237   8.19505   1_554     S
Cu0   O245   0.71860       .     S
Cu0   O304   2.06597   1_554     S
Cu1   Cu0    2.75980       .     S
Cu1   N61    1.03572   1_554     S
Cu1   O235   8.34979   1_554     S
Cu1   O236   7.53232       .     S
Cu1   O242   0.69174       .     S
Cu1   O307   1.99674   1_554     S
H2    O66    0.99062       .     S
H3    O69    0.99059       .     S
H4    O72    0.99064   1_554     S
H5    O75    0.99051       .     S
H6    C46    1.11107   1_655     S
H7    C46    1.11090   1_655     S
H8    C46    1.11035       .     S
H9    C45    1.11080       .     S
H10   C45    1.11101       .     S
H11   C44    1.10591       .     S
H12   C44    1.10178       .     S
H13   C49    1.11080       .     S
H14   C49    1.11077       .     S
H15   C49    1.10961       .     A
H16   C48    1.11053       .     A
H17   C48    1.10928       .     A
H18   C47    1.10947       .     S
H19   C47    1.10215       .     S
H20   C52    1.11081   1_655     S
H21   C52    1.11035       .     S
H22   C52    1.11046       .     S
H23   C51    1.10383       .     S
H24   C51    1.10292       .     S
H25   C50    1.11120       .     A
H26   C50    1.09853       .     S
H27   C55    1.11074       .     S
H28   C55    1.10961       .     S
H29   C55    1.11073   1_556     S
H30   C54    1.10568       .     S
H31   C54    1.10368       .     A
H32   C53    1.10909       .     S
H33   C53    1.08657       .     S
C34   C36    1.43158       .     D
C34   S57    1.79780       .     A
C34   N60    1.40330       .     A
C35   C37    1.41814       .     S
C35   S56    1.78395   1_455     A
C35   N61    1.38870       .     S
C36   C34    1.43158       .     A
C36   C38    1.40866       .     A
C36   S59    1.78585       .     S
C37   C35    1.41814       .     S
C37   C39    1.41029       .     A
C37   S58    1.77917       .     S
C38   C36    1.40866       .     S
C38   C40    1.40681       .     S
C38   N62    1.45645       .     A
C39   C37    1.41029       .     S
C39   C41    1.41106       .     S
C39   N63    1.45013       .     S
C40   C38    1.40681       .     S
C40   C42    1.44459       .     S
C40   C44    1.53162       .     S
C41   C39    1.41106       .     S
C41   C43    1.44442       .     S
C41   C47    1.53178       .     S
C42   C40    1.44459       .     S
C42   C50    1.52347       .     S
C42   N60    1.40491       .     S
C43   C41    1.44442       .     S
C43   C53    1.52578   1_556     S
C43   N61    1.39936       .     S
C44   H11    1.10591       .     S
C44   H12    1.10178       .     S
C44   C40    1.53162       .     S
C44   C45    1.53641       .     S
C45   H9     1.11080       .     S
C45   H10    1.11101       .     S
C45   C44    1.53641       .     S
C45   C46    1.52580       .     S
C46   H6     1.11107   1_455     S
C46   H7     1.11090   1_455     S
C46   H8     1.11035       .     S
C46   C45    1.52580       .     S
C47   H18    1.10947       .     S
C47   H19    1.10215       .     S
C47   C41    1.53178       .     S
C47   C48    1.53999       .     S
C48   H16    1.11053       .     S
C48   H17    1.10928       .     S
C48   C47    1.53999       .     S
C48   C49    1.52575       .     S
C49   H13    1.11080       .     S
C49   H14    1.11077       .     S
C49   H15    1.10961       .     S
C49   C48    1.52575       .     S
C50   H25    1.11120       .     S
C50   H26    1.09853       .     S
C50   C42    1.52347       .     A
C50   C51    1.54902       .     A
C51   H23    1.10383       .     A
C51   H24    1.10292       .     S
C51   C50    1.54902       .     S
C51   C52    1.52654       .     S
C52   H20    1.11081   1_455     S
C52   H21    1.11035       .     S
C52   H22    1.11046       .     S
C52   C51    1.52654       .     S
C53   H32    1.10909       .     A
C53   H33    1.08657       .     S
C53   C43    1.52578   1_554     S
C53   C54    1.53895   1_554     S
C54   H30    1.10568       .     S
C54   H31    1.10368       .     S
C54   C53    1.53895   1_556     A
C54   C55    1.52737   1_556     S
C55   H27    1.11074       .     S
C55   H28    1.10961       .     D
C55   H29    1.11073   1_554     A
C55   C54    1.52737   1_554     A
S56   C35    1.78395   1_655     S
S56   O64    1.50176       .     A
S56   O65    1.50313       .     S
S56   O66    1.68237       .     A
S57   C34    1.79780       .     A
S57   O67    1.50182       .     S
S57   O68    1.50306       .     S
S57   O69    1.66991       .     A
S58   C37    1.77917       .     S
S58   O70    1.49991   1_455     S
S58   O71    1.50342   1_455     S
S58   O72    1.67803       .     A
S59   C36    1.78585       .     S
S59   O73    1.50192       .     S
S59   O74    1.50175       .     S
S59   O75    1.67790       .     S
N60   C34    1.40330       .     S
N60   C42    1.40491       .     S
N60   Cu76   1.04743       .     S
N61   Cu1    1.03572   1_556     S
N61   C35    1.38870       .     S
N61   C43    1.39936       .     S
N62   C38    1.45645       .     S
N62   N63    1.25164       .     S
N63   C39    1.45013       .     S
N63   N62    1.25164       .     S
O64   S56    1.50176       .     S
O65   S56    1.50313       .     S
O66   H2     0.99062       .     S
O66   S56    1.68237       .     S
O67   S57    1.50182       .     S
O68   S57    1.50306       .     S
O69   H3     0.99059       .     S
O69   S57    1.66991       .     S
O70   S58    1.49991   1_655     D
O71   S58    1.50342   1_655     S
O72   H4     0.99064   1_556     S
O72   S58    1.67803       .     T
O73   S59    1.50192       .     S
O74   S59    1.50175       .     D
O75   H5     0.99051       .     S
O75   S59    1.67790       .     D
Cu76  N60    1.04743       .     S
Cu76  Cu77   2.73380       .     S
Cu76  O87    0.50139       .     T
Cu76  O150   8.92586   1_556     S
Cu76  O244   8.80722       .     D
Cu76  O306   1.90321       .     S
Cu77  Cu76   2.73380       .     S
Cu77  O86    0.47981       .     S
Cu77  O151   8.92794       .     S
Cu77  O152   9.08923   1_556     S
Cu77  O305   2.07292       .     S
Cu77  N373   1.19447       .     S
Zn78  Zn79   3.03776       .     S
Zn78  O201   3.80594       .     S
Zn78  O202   1.59244       .     S
Zn78  O234   2.50177       .     S
Zn78  O243   7.31364       .     S
Zn78  N372   2.41860       .     S
Zn79  Zn78   3.03776       .     S
Zn79  O85    8.16149   1_545     S
Zn79  O153   6.19333   1_545     S
Zn79  N181   2.90702       .     S
Zn79  O200   3.71750   1_455     S
Zn79  O203   1.50739       .     S
C80   C82    1.40544       .     S
C80   O84    1.30208       .     S
C80   O87    1.30583       .     S
C81   C83    1.40540   1_455     S
C81   O85    1.30250       .     S
C81   O86    1.30568       .     A
C82   C80    1.40544       .     A
C82   C83    1.18835       .     S
C83   C81    1.40540   1_655     S
C83   C82    1.18835       .     A
O84   Cu0    8.73609   1_556     A
O84   C80    1.30208       .     S
O85   Zn79   8.16149   1_565     S
O85   C81    1.30250       .     A
O86   Cu77   0.47981       .     A
O86   C81    1.30568       .     A
O87   Cu76   0.50139       .     S
O87   C80    1.30583       .     S
H88   C133   1.08240       .     S
H89   C132   1.08246       .     S
H90   C139   1.10652       .     S
H91   C139   1.10381   1_556     S
H92   C139   1.10716   1_546     A
H93   C138   1.11113       .     S
H94   C138   1.11054       .     A
H95   C134   1.08123       .     A
H96   C141   1.11115       .     A
H97   C141   1.11048       .     S
H98   C141   1.10894       .     A
H99   C140   1.10961   1_455     A
H100  C140   1.11194       .     A
H101  C144   1.11099       .     S
H102  C144   1.11044       .     S
H103  C144   1.11041   1_545     S
H104  C143   1.11237       .     A
H105  C143   1.10751       .     S
H106  C142   1.10987   1_655     A
H107  C142   1.10286       .     A
H108  C148   1.11076       .     S
H109  C148   1.11050   1_545     S
H110  C148   1.11074       .     S
H111  C146   1.10591       .     D
H112  C146   1.11208       .     S
H113  C145   1.10524       .     S
H114  C145   1.10548       .     S
H115  C124   1.08381   1_455     D
H116  C126   1.08372       .     S
H117  C129   1.08306       .     A
H118  C130   1.08341       .     S
H119  C131   1.08206       .     S
C120  C136   1.46877       .     S
C120  O150   1.27463       .     S
C120  O152   1.28210       .     S
C121  C125   1.45601       .     S
C121  O151   1.27811       .     S
C121  O153   1.28061       .     S
C122  C124   1.40313       .     S
C122  C133   1.40480       .     S
C122  C138   1.50434       .     S
C123  C126   1.40446       .     S
C123  C134   1.40449       .     S
C123  C140   1.50720       .     S
C124  H115   1.08381   1_655     S
C124  C122   1.40313       .     S
C124  C127   1.40165   1_655     S
C125  C121   1.45601       .     S
C125  C135   1.40607       .     S
C125  C147   1.40920       .     S
C126  H116   1.08372       .     S
C126  C123   1.40446       .     S
C126  C128   1.40518       .     S
C127  C124   1.40165   1_455     S
C127  C129   1.40238   1_455     S
C127  C149   1.48083       .     A
C128  C126   1.40518       .     A
C128  C130   1.40318       .     S
C128  C147   1.48552       .     S
C129  H117   1.08306       .     A
C129  C127   1.40238   1_655     A
C129  C131   1.39564       .     S
C130  H118   1.08341       .     S
C130  C128   1.40318       .     A
C130  C132   1.39549       .     A
C131  H119   1.08206       .     A
C131  C129   1.39564       .     S
C131  C133   1.39664       .     S
C132  H89    1.08246       .     S
C132  C130   1.39549       .     S
C132  C134   1.39669       .     S
C133  H88    1.08240       .     S
C133  C122   1.40480       .     A
C133  C131   1.39664       .     S
C134  H95    1.08123       .     A
C134  C123   1.40449       .     A
C134  C132   1.39669       .     A
C135  C125   1.40607       .     S
C135  C142   1.53234       .     A
C135  C149   1.39941       .     A
C136  C120   1.46877       .     A
C136  C137   1.42788       .     S
C136  C149   1.41943       .     S
C137  C136   1.42788       .     S
C137  C145   1.53610       .     A
C137  C147   1.40639       .     S
C138  H93    1.11113       .     A
C138  H94    1.11054       .     A
C138  C122   1.50434       .     S
C138  C139   1.52718       .     S
C139  H90    1.10652       .     S
C139  H91    1.10381   1_554     D
C139  H92    1.10716   1_564     S
C139  C138   1.52718       .     S
C140  H99    1.10961   1_655     S
C140  H100   1.11194       .     D
C140  C123   1.50720       .     S
C140  C141   1.52612   1_655     A
C141  H96    1.11115       .     S
C141  H97    1.11048       .     S
C141  H98    1.10894       .     S
C141  C140   1.52612   1_455     S
C142  H106   1.10987   1_455     S
C142  H107   1.10286       .     S
C142  C135   1.53234       .     S
C142  C143   1.53527       .     D
C143  H104   1.11237       .     D
C143  H105   1.10751       .     S
C143  C142   1.53527       .     S
C143  C144   1.52629   1_455     S
C144  H101   1.11099       .     S
C144  H102   1.11044       .     D
C144  H103   1.11041   1_565     D
C144  C143   1.52629   1_655     A
C145  H113   1.10524       .     A
C145  H114   1.10548       .     A
C145  C137   1.53610       .     A
C145  C146   1.53390       .     A
C146  H111   1.10591       .     S
C146  H112   1.11208       .     S
C146  C145   1.53390       .     A
C146  C148   1.52698       .     A
C147  C125   1.40920       .     A
C147  C128   1.48552       .     S
C147  C137   1.40639       .     A
C148  H108   1.11076       .     D
C148  H109   1.11050   1_565     A
C148  H110   1.11074       .     S
C148  C146   1.52698       .     A
C149  C127   1.48083       .     S
C149  C135   1.39941       .     D
C149  C136   1.41943       .     S
O150  Cu76   8.92586   1_554     A
O150  C120   1.27463       .     D
O151  Cu77   8.92794       .     S
O151  C121   1.27811       .     D
O152  Cu77   9.08923   1_554     D
O152  C120   1.28210       .     D
O153  Zn79   6.19333   1_565     S
O153  C121   1.28061       .     S
H154  C166   1.08128       .     S
H155  C167   1.08130       .     S
H156  C169   1.08303       .     S
H157  C168   1.08317       .     S
H158  N184   1.03010       .     S
H159  C178   1.11065       .     S
H160  C178   1.11040       .     S
H161  C178   1.11104       .     S
H162  N185   1.03023       .     D
H163  C179   1.11036       .     D
H164  C179   1.11049       .     S
H165  C179   1.11099       .     S
C166  H154   1.08128       .     S
C166  C168   1.39465       .     S
C166  N180   1.36028       .     D
C167  H155   1.08130       .     D
C167  C169   1.39533       .     A
C167  N181   1.35999       .     A
C168  H157   1.08317       .     A
C168  C166   1.39465       .     A
C168  C170   1.39806       .     A
C169  H156   1.08303       .     S
C169  C167   1.39533       .     S
C169  C171   1.39933       .     A
C170  C168   1.39806       .     A
C170  C172   1.41104       .     A
C170  C176   1.49332       .     S
C171  C169   1.39933       .     A
C171  C173   1.41162       .     D
C171  C177   1.49335       .     A
C172  C170   1.41104       .     S
C172  C174   1.41414       .     A
C172  N186   1.43751       .     S
C173  C171   1.41162       .     D
C173  C175   1.41361   1_455     S
C173  N187   1.43822       .     A
C174  C172   1.41414       .     D
C174  N180   1.36960       .     S
C174  N183   1.43024       .     D
C175  C173   1.41361   1_655     D
C175  N181   1.36623   1_655     D
C175  N182   1.42729       .     S
C176  C170   1.49332       .     S
C176  C177   1.36880       .     S
C176  N185   1.43901       .     S
C177  C171   1.49335       .     S
C177  C176   1.36880       .     D
C177  N184   1.43860       .     D
C178  H159   1.11065       .     S
C178  H160   1.11040       .     S
C178  H161   1.11104       .     S
C178  N184   1.44842       .     S
C179  H163   1.11036       .     T
C179  H164   1.11049       .     D
C179  H165   1.11099       .     D
C179  N185   1.44853       .     S
N180  Cu0    1.62514       .     S
N180  C166   1.36028       .     S
N180  C174   1.36960       .     S
N181  Zn79   2.90702       .     T
N181  C167   1.35999       .     S
N181  C175   1.36623   1_455     S
N182  C175   1.42729       .     A
N182  O188   1.30024       .     A
N182  O189   1.30058       .     A
N183  C174   1.43024       .     D
N183  O190   1.30116       .     S
N183  O191   1.29883   1_554     A
N184  H158   1.03010       .     S
N184  C177   1.43860       .     A
N184  C178   1.44842       .     S
N185  H162   1.03023       .     S
N185  C176   1.43901       .     A
N185  C179   1.44853       .     S
N186  C172   1.43751       .     S
N186  O192   1.30131       .     T
N186  O193   1.30079       .     S
N187  C173   1.43822       .     D
N187  O194   1.30067   1_455     S
N187  O195   1.30049       .     S
O188  N182   1.30024       .     D
O189  N182   1.30058       .     T
O190  N183   1.30116       .     S
O191  N183   1.29883   1_556     S
O192  N186   1.30131       .     A
O193  N186   1.30079       .     A
O194  N187   1.30067   1_655     A
O195  N187   1.30049       .     S
C196  C198   1.38811       .     S
C196  O200   1.27652       .     A
C196  O203   1.27652   1_655     S
C197  C199   1.38848       .     A
C197  O201   1.27652       .     A
C197  O202   1.27652       .     S
C198  C196   1.38811       .     S
C198  C199   1.17831       .     S
C199  C197   1.38848       .     S
C199  C198   1.17831       .     A
O200  Zn79   3.71750   1_655     A
O200  C196   1.27652       .     A
O201  Zn78   3.80594       .     D
O201  C197   1.27652       .     S
O202  Zn78   1.59244       .     A
O202  C197   1.27652       .     S
O203  Zn79   1.50739       .     A
O203  C196   1.27652   1_455     S
H204  C223   1.08335       .     S
H205  C224   1.08237       .     A
H206  C225   1.08265       .     S
H207  C226   1.08179       .     S
H208  C227   1.08305       .     T
H209  C229   1.08328   1_655     S
H210  C230   1.08031       .     D
H211  C231   1.08284       .     S
H212  C232   1.08171       .     S
H213  C233   1.08280       .     D
C214  C217   1.42104       .     T
C214  O234   1.29024       .     S
C214  O236   1.29488       .     S
C215  C216   1.42258       .     A
C215  O235   1.29063       .     A
C215  O237   1.29535       .     A
C216  C215   1.42258       .     S
C216  C221   1.19907       .     S
C217  C214   1.42104       .     A
C217  C220   1.19833       .     S
C218  C219   1.36035       .     A
C218  C221   1.43876       .     A
C218  C228   1.49282       .     S
C219  C218   1.36035       .     S
C219  C220   1.43750       .     D
C219  C222   1.49116       .     S
C220  C217   1.19833       .     S
C220  C219   1.43750       .     T
C221  C216   1.19907       .     S
C221  C218   1.43876       .     D
C222  C219   1.49116       .     S
C222  C223   1.40602       .     D
C222  C227   1.40793       .     S
C223  H204   1.08335       .     S
C223  C222   1.40602       .     T
C223  C224   1.39964       .     S
C224  H205   1.08237       .     D
C224  C223   1.39964       .     S
C224  C225   1.39739       .     D
C225  H206   1.08265       .     S
C225  C224   1.39739       .     S
C225  C226   1.39680       .     S
C226  H207   1.08179       .     S
C226  C225   1.39680       .     S
C226  C227   1.39844       .     S
C227  H208   1.08305       .     A
C227  C222   1.40793       .     A
C227  C226   1.39844       .     A
C228  C218   1.49282       .     A
C228  C229   1.40620       .     A
C228  C233   1.40866       .     A
C229  H209   1.08328   1_455     S
C229  C228   1.40620       .     S
C229  C230   1.39972   1_455     A
C230  H210   1.08031       .     A
C230  C229   1.39972   1_655     S
C230  C231   1.39659       .     A
C231  H211   1.08284       .     S
C231  C230   1.39659       .     A
C231  C232   1.39583   1_655     A
C232  H212   1.08171       .     S
C232  C231   1.39583   1_455     A
C232  C233   1.39862       .     S
C233  H213   1.08280       .     S
C233  C228   1.40866       .     A
C233  C232   1.39862       .     A
O234  Zn78   2.50177       .     S
O234  C214   1.29024       .     A
O235  Cu1    8.34979   1_556     A
O235  C215   1.29063       .     A
O236  Cu1    7.53232       .     S
O236  C214   1.29488       .     S
O237  Cu0    8.19505   1_556     A
O237  C215   1.29535       .     S
C238  C240   1.39074   1_455     S
C238  O242   1.29878       .     S
C238  O243   1.29926       .     A
C239  C240   1.17981       .     A
C239  C241   1.39074       .     A
C240  C238   1.39074   1_655     A
C240  C239   1.17981       .     A
C241  C239   1.39074       .     S
C241  O244   1.29954   1_554     A
C241  O245   1.29907       .     S
O242  Cu1    0.69174       .     S
O242  C238   1.29878       .     S
O243  Zn78   7.31364       .     S
O243  C238   1.29926       .     A
O244  Cu76   8.80722       .     A
O244  C241   1.29954   1_556     A
O245  Cu0    0.71860       .     A
O245  C241   1.29907       .     A
H246  C287   1.08310       .     A
H247  C288   1.08214       .     S
H248  C289   1.08245       .     S
H249  C290   1.08247       .     A
H250  C291   1.08308       .     A
H251  C293   1.08317       .     S
H252  C294   1.08227       .     A
H253  C295   1.08252       .     S
H254  C296   1.08244       .     A
H255  C297   1.08308       .     A
H256  C299   1.08321       .     S
H257  C300   1.08226       .     A
H258  C301   1.08256       .     S
H259  C302   1.08250       .     S
H260  C303   1.08311       .     S
H261  C281   1.08305       .     D
H262  C282   1.08228       .     S
H263  C283   1.08244       .     D
H264  C284   1.08253       .     S
H265  C285   1.08304       .     S
C266  C276   1.46303       .     S
C266  O304   1.28881       .     S
C266  O307   1.28877       .     S
C267  C272   1.39506       .     S
C267  C278   1.39738       .     A
C267  F308   1.35987       .     A
C268  C273   1.39506   1_545     A
C268  C279   1.39726       .     A
C268  F309   1.35992       .     A
C269  C274   1.39508       .     A
C269  C279   1.39735   1_565     S
C269  F310   1.35997   1_565     S
C270  C277   1.46303       .     A
C270  O305   1.28881       .     A
C270  O306   1.28877       .     S
C271  C275   1.39507       .     A
C271  C278   1.39726       .     S
C271  F311   1.35991       .     A
C272  C267   1.39506       .     A
C272  C276   1.41580       .     S
C272  C280   1.48002       .     A
C273  C268   1.39506   1_565     S
C273  C277   1.41573       .     S
C273  C286   1.48003       .     A
C274  C269   1.39508       .     A
C274  C277   1.41557       .     S
C274  C292   1.48010       .     A
C275  C271   1.39507       .     A
C275  C276   1.41574       .     A
C275  C298   1.48006       .     S
C276  C266   1.46303       .     S
C276  C272   1.41580       .     A
C276  C275   1.41574       .     S
C277  C270   1.46303       .     S
C277  C273   1.41573       .     S
C277  C274   1.41557       .     A
C278  C267   1.39738       .     A
C278  C271   1.39726       .     A
C278  C279   1.45398       .     A
C279  C268   1.39726       .     A
C279  C269   1.39735   1_545     S
C279  C278   1.45398       .     A
C280  C272   1.48002       .     S
C280  C281   1.40423       .     S
C280  C285   1.40387       .     S
C281  H261   1.08305       .     S
C281  C280   1.40423       .     A
C281  C282   1.39874       .     A
C282  H262   1.08228       .     A
C282  C281   1.39874       .     A
C282  C283   1.39815       .     A
C283  H263   1.08244       .     A
C283  C282   1.39815       .     S
C283  C284   1.39833       .     S
C284  H264   1.08253       .     A
C284  C283   1.39833       .     A
C284  C285   1.39889       .     S
C285  H265   1.08304       .     A
C285  C280   1.40387       .     S
C285  C284   1.39889       .     A
C286  C273   1.48003       .     A
C286  C287   1.40420       .     S
C286  C291   1.40379   1_455     A
C287  H246   1.08310       .     S
C287  C286   1.40420       .     S
C287  C288   1.39877       .     S
C288  H247   1.08214       .     D
C288  C287   1.39877       .     S
C288  C289   1.39812   1_455     S
C289  H248   1.08245       .     S
C289  C288   1.39812   1_655     S
C289  C290   1.39837       .     A
C290  H249   1.08247       .     A
C290  C289   1.39837       .     S
C290  C291   1.39904       .     S
C291  H250   1.08308       .     A
C291  C286   1.40379   1_655     A
C291  C290   1.39904       .     S
C292  C274   1.48010       .     S
C292  C293   1.40416       .     A
C292  C297   1.40388       .     S
C293  H251   1.08317       .     S
C293  C292   1.40416       .     A
C293  C294   1.39870       .     A
C294  H252   1.08227       .     A
C294  C293   1.39870       .     S
C294  C295   1.39818       .     S
C295  H253   1.08252       .     S
C295  C294   1.39818       .     A
C295  C296   1.39838       .     S
C296  H254   1.08244       .     A
C296  C295   1.39838       .     S
C296  C297   1.39896       .     S
C297  H255   1.08308       .     A
C297  C292   1.40388       .     A
C297  C296   1.39896       .     A
C298  C275   1.48006       .     A
C298  C299   1.40413   1_556     A
C298  C303   1.40392   1_455     S
C299  H256   1.08321       .     S
C299  C298   1.40413   1_554     A
C299  C300   1.39881       .     S
C300  H257   1.08226       .     S
C300  C299   1.39881       .     A
C300  C301   1.39808   1_455     A
C301  H258   1.08256       .     S
C301  C300   1.39808   1_655     A
C301  C302   1.39829       .     S
C302  H259   1.08250       .     A
C302  C301   1.39829       .     D
C302  C303   1.39892   1_554     S
C303  H260   1.08311       .     A
C303  C298   1.40392   1_655     S
C303  C302   1.39892   1_556     A
O304  Cu0    2.06597   1_556     S
O304  C266   1.28881       .     A
O305  Cu77   2.07292       .     A
O305  C270   1.28881       .     A
O306  Cu76   1.90321       .     A
O306  C270   1.28877       .     A
O307  Cu1    1.99674   1_556     S
O307  C266   1.28877       .     A
F308  C267   1.35987       .     S
F309  C268   1.35992       .     S
F310  C269   1.35997   1_545     A
F311  C271   1.35991       .     S
H312  C340   1.08247       .     S
H313  C344   1.08323       .     A
H314  C345   1.08197       .     A
H315  C346   1.08219       .     S
H316  C347   1.08204       .     A
H317  C348   1.08333       .     S
H318  C350   1.08340       .     S
H319  C351   1.08213       .     S
H320  C352   1.08217       .     A
H321  C353   1.08192       .     A
H322  C354   1.08328       .     S
H323  C356   1.08304   1_655     S
H324  C357   1.08221       .     A
H325  C358   1.08231   1_655     A
H326  C359   1.08227       .     S
H327  C360   1.08283       .     S
H328  C362   1.08291       .     S
H329  C363   1.08223       .     S
H330  C364   1.08227       .     S
H331  C365   1.08217   1_565     S
H332  C366   1.08308   1_565     A
H333  O378   0.99066       .     A
H334  O381   0.99052       .     S
H335  C339   1.08264       .     S
C336  C338   1.40630       .     A
C336  C355   1.48456       .     A
C336  C368   1.43151       .     S
C337  C339   1.38310       .     S
C337  C369   1.40615   1_565     A
C337  N374   1.43932       .     S
C338  C336   1.40630       .     S
C338  C340   1.38334       .     A
C338  N375   1.43933       .     A
C339  H335   1.08264       .     A
C339  C337   1.38310       .     S
C339  C341   1.40937   1_565     S
C340  H312   1.08247       .     S
C340  C338   1.38334       .     A
C340  C342   1.40828       .     S
C341  C339   1.40937   1_545     A
C341  S370   1.78743   1_545     S
C341  N372   1.39666       .     S
C342  C340   1.40828       .     A
C342  S371   1.78536       .     A
C342  N373   1.39657       .     A
C343  C344   1.40718       .     A
C343  C348   1.40558   1_455     A
C343  C368   1.48161       .     S
C344  H313   1.08323       .     S
C344  C343   1.40718       .     A
C344  C345   1.39809       .     S
C345  H314   1.08197       .     S
C345  C344   1.39809       .     A
C345  C346   1.39641   1_455     A
C346  H315   1.08219       .     S
C346  C345   1.39641   1_655     A
C346  C347   1.39659       .     S
C347  H316   1.08204       .     A
C347  C346   1.39659       .     D
C347  C348   1.39776       .     S
C348  H317   1.08333       .     A
C348  C343   1.40558   1_655     S
C348  C347   1.39776       .     A
C349  C350   1.40552       .     S
C349  C354   1.40708       .     A
C349  C367   1.48162       .     A
C350  H318   1.08340       .     A
C350  C349   1.40552       .     A
C350  C351   1.39784       .     A
C351  H319   1.08213       .     S
C351  C350   1.39784       .     A
C351  C352   1.39655       .     S
C352  H320   1.08217       .     S
C352  C351   1.39655       .     A
C352  C353   1.39632       .     S
C353  H321   1.08192       .     S
C353  C352   1.39632       .     A
C353  C354   1.39807       .     A
C354  H322   1.08328       .     S
C354  C349   1.40708       .     A
C354  C353   1.39807       .     S
C355  C336   1.48456       .     S
C355  C356   1.40327       .     S
C355  C360   1.40381       .     A
C356  H323   1.08304   1_455     A
C356  C355   1.40327       .     S
C356  C357   1.39816   1_455     S
C357  H324   1.08221       .     A
C357  C356   1.39816   1_655     A
C357  C358   1.39808   1_655     S
C358  H325   1.08231   1_455     S
C358  C357   1.39808   1_455     S
C358  C359   1.39789       .     S
C359  H326   1.08227       .     S
C359  C358   1.39789       .     S
C359  C360   1.39803       .     S
C360  H327   1.08283       .     S
C360  C355   1.40381       .     S
C360  C359   1.39803       .     S
C361  C362   1.40379       .     S
C361  C366   1.40340       .     S
C361  C369   1.48465       .     S
C362  H328   1.08291       .     S
C362  C361   1.40379       .     S
C362  C363   1.39805       .     S
C363  H329   1.08223       .     S
C363  C362   1.39805       .     S
C363  C364   1.39791       .     S
C364  H330   1.08227       .     S
C364  C363   1.39791       .     S
C364  C365   1.39792       .     S
C365  H331   1.08217   1_545     S
C365  C364   1.39792       .     S
C365  C366   1.39815       .     S
C366  H332   1.08308   1_545     S
C366  C361   1.40340       .     S
C366  C365   1.39815       .     S
C367  C349   1.48162       .     S
C367  C369   1.43169       .     S
C367  N372   1.39570       .     S
C368  C336   1.43151       .     S
C368  C343   1.48161       .     S
C368  N373   1.39567       .     S
C369  C337   1.40615   1_545     S
C369  C361   1.48465       .     S
C369  C367   1.43169       .     S
S370  C341   1.78743   1_565     S
S370  O376   1.50434       .     S
S370  O377   1.49685   1_565     S
S370  O378   1.68194       .     S
S371  C342   1.78536       .     S
S371  O379   1.50340       .     S
S371  O380   1.49676       .     S
S371  O381   1.68376       .     S
N372  Zn78   2.41860       .     S
N372  C341   1.39666       .     S
N372  C367   1.39570       .     S
N373  Cu77   1.19447       .     S
N373  C342   1.39657       .     S
N373  C368   1.39567       .     S
N374  C337   1.43932       .     S
N374  N375   1.25092       .     S
N375  C338   1.43933       .     S
N375  N374   1.25092       .     S
O376  S370   1.50434       .     S
O377  S370   1.49685   1_545     S
O378  H333   0.99066       .     S
O378  S370   1.68194       .     S
O379  S371   1.50340       .     S
O380  S371   1.49676       .     S
O381  H334   0.99052       .     S
O381  S371   1.68376       .     S
