data_sample_8_relaxed_charged

_audit_creation_method RASPA-1.0
_audit_creation_date 2026-2-5
_audit_author_name ''

_cell_length_a    10.2223
_cell_length_b    12.4829
_cell_length_c    24.7724
_cell_angle_alpha 91.8192
_cell_angle_beta  91.6934
_cell_angle_gamma 92.2505
_cell_volume      25244.2

_symmetry_cell_setting          triclinic
_symmetry_space_group_name_Hall 'P 1'
_symmetry_space_group_name_H-M  'P 1'
_symmetry_Int_Tables_number     1

_symmetry_equiv_pos_as_xyz 'x,y,z'

loop_
_atom_site_label
_atom_site_type_symbol
_atom_site_fract_x
_atom_site_fract_y
_atom_site_fract_z
_atom_site_charge
Zn0      Zn     0.304745080000     0.300708680000     0.049448185000     0.102312   
Zn0      Zn     0.304745080000     0.300708680000     0.549448185000     0.102312   
Zn0      Zn     0.304745080000     0.800708680000     0.049448185000     0.102312   
Zn0      Zn     0.304745080000     0.800708680000     0.549448185000     0.102312   
Zn0      Zn     0.804745080000     0.300708680000     0.049448185000     0.102312   
Zn0      Zn     0.804745080000     0.300708680000     0.549448185000     0.102312   
Zn0      Zn     0.804745080000     0.800708680000     0.049448185000     0.102312   
Zn0      Zn     0.804745080000     0.800708680000     0.549448185000     0.102312   
Zn1      Zn     0.384397800000     0.400589800000     0.034213265000     0.063768   
Zn1      Zn     0.384397800000     0.400589800000     0.534213265000     0.063768   
Zn1      Zn     0.384397800000     0.900589800000     0.034213265000     0.063768   
Zn1      Zn     0.384397800000     0.900589800000     0.534213265000     0.063768   
Zn1      Zn     0.884397800000     0.400589800000     0.034213265000     0.063768   
Zn1      Zn     0.884397800000     0.400589800000     0.534213265000     0.063768   
Zn1      Zn     0.884397800000     0.900589800000     0.034213265000     0.063768   
Zn1      Zn     0.884397800000     0.900589800000     0.534213265000     0.063768   
H2       H      0.128756200000     0.317595850000     0.077285970000     0.015581   
H2       H      0.128756200000     0.317595850000     0.577285970000     0.015581   
H2       H      0.128756200000     0.817595850000     0.077285970000     0.015581   
H2       H      0.128756200000     0.817595850000     0.577285970000     0.015581   
H2       H      0.628756200000     0.317595850000     0.077285970000     0.015581   
H2       H      0.628756200000     0.317595850000     0.577285970000     0.015581   
H2       H      0.628756200000     0.817595850000     0.077285970000     0.015581   
H2       H      0.628756200000     0.817595850000     0.577285970000     0.015581   
H3       H      0.058928685000     0.413760065000     0.063173020000     0.091038   
H3       H      0.058928685000     0.413760065000     0.563173020000     0.091038   
H3       H      0.058928685000     0.913760065000     0.063173020000     0.091038   
H3       H      0.058928685000     0.913760065000     0.563173020000     0.091038   
H3       H      0.558928685000     0.413760065000     0.063173020000     0.091038   
H3       H      0.558928685000     0.413760065000     0.563173020000     0.091038   
H3       H      0.558928685000     0.913760065000     0.063173020000     0.091038   
H3       H      0.558928685000     0.913760065000     0.563173020000     0.091038   
H4       H      0.216480525000     0.406780870000     0.014264740000     0.089544   
H4       H      0.216480525000     0.406780870000     0.514264740000     0.089544   
H4       H      0.216480525000     0.906780870000     0.014264740000     0.089544   
H4       H      0.216480525000     0.906780870000     0.514264740000     0.089544   
H4       H      0.716480525000     0.406780870000     0.014264740000     0.089544   
H4       H      0.716480525000     0.406780870000     0.514264740000     0.089544   
H4       H      0.716480525000     0.906780870000     0.014264740000     0.089544   
H4       H      0.716480525000     0.906780870000     0.514264740000     0.089544   
H5       H      0.129137410000     0.395678050000     0.011149885000     0.044384   
H5       H      0.129137410000     0.395678050000     0.511149885000     0.044384   
H5       H      0.129137410000     0.895678050000     0.011149885000     0.044384   
H5       H      0.129137410000     0.895678050000     0.511149885000     0.044384   
H5       H      0.629137410000     0.395678050000     0.011149885000     0.044384   
H5       H      0.629137410000     0.395678050000     0.511149885000     0.044384   
H5       H      0.629137410000     0.895678050000     0.011149885000     0.044384   
H5       H      0.629137410000     0.895678050000     0.511149885000     0.044384   
H6       H      0.164509850000     0.442969200000     0.036543370000     0.069129   
H6       H      0.164509850000     0.442969200000     0.536543370000     0.069129   
H6       H      0.164509850000     0.942969200000     0.036543370000     0.069129   
H6       H      0.164509850000     0.942969200000     0.536543370000     0.069129   
H6       H      0.664509850000     0.442969200000     0.036543370000     0.069129   
H6       H      0.664509850000     0.442969200000     0.536543370000     0.069129   
H6       H      0.664509850000     0.942969200000     0.036543370000     0.069129   
H6       H      0.664509850000     0.942969200000     0.536543370000     0.069129   
H7       H      0.470105825000     0.270481900000     0.025383800000     0.076482   
H7       H      0.470105825000     0.270481900000     0.525383800000     0.076482   
H7       H      0.470105825000     0.770481900000     0.025383800000     0.076482   
H7       H      0.470105825000     0.770481900000     0.525383800000     0.076482   
H7       H      0.970105825000     0.270481900000     0.025383800000     0.076482   
H7       H      0.970105825000     0.270481900000     0.525383800000     0.076482   
H7       H      0.970105825000     0.770481900000     0.025383800000     0.076482   
H7       H      0.970105825000     0.770481900000     0.525383800000     0.076482   
H8       H      0.057968405000     0.275823325000     0.026200645000     0.054187   
H8       H      0.057968405000     0.275823325000     0.526200645000     0.054187   
H8       H      0.057968405000     0.775823325000     0.026200645000     0.054187   
H8       H      0.057968405000     0.775823325000     0.526200645000     0.054187   
H8       H      0.557968405000     0.275823325000     0.026200645000     0.054187   
H8       H      0.557968405000     0.275823325000     0.526200645000     0.054187   
H8       H      0.557968405000     0.775823325000     0.026200645000     0.054187   
H8       H      0.557968405000     0.775823325000     0.526200645000     0.054187   
H9       H      0.014336045000     0.261899150000     0.056768260000     0.11719    
H9       H      0.014336045000     0.261899150000     0.556768260000     0.11719    
H9       H      0.014336045000     0.761899150000     0.056768260000     0.11719    
H9       H      0.014336045000     0.761899150000     0.556768260000     0.11719    
H9       H      0.514336045000     0.261899150000     0.056768260000     0.11719    
H9       H      0.514336045000     0.261899150000     0.556768260000     0.11719    
H9       H      0.514336045000     0.761899150000     0.056768260000     0.11719    
H9       H      0.514336045000     0.761899150000     0.556768260000     0.11719    
H10      H      0.364256750000     0.452957000000     0.484880300000     0.168402   
H10      H      0.364256750000     0.452957000000     0.984880300000     0.168402   
H10      H      0.364256750000     0.952957000000     0.484880300000     0.168402   
H10      H      0.364256750000     0.952957000000     0.984880300000     0.168402   
H10      H      0.864256750000     0.452957000000     0.484880300000     0.168402   
H10      H      0.864256750000     0.452957000000     0.984880300000     0.168402   
H10      H      0.864256750000     0.952957000000     0.484880300000     0.168402   
H10      H      0.864256750000     0.952957000000     0.984880300000     0.168402   
H11      H      0.399805725000     0.138329750000     0.478751150000     0.102758   
H11      H      0.399805725000     0.138329750000     0.978751150000     0.102758   
H11      H      0.399805725000     0.638329750000     0.478751150000     0.102758   
H11      H      0.399805725000     0.638329750000     0.978751150000     0.102758   
H11      H      0.899805725000     0.138329750000     0.478751150000     0.102758   
H11      H      0.899805725000     0.138329750000     0.978751150000     0.102758   
H11      H      0.899805725000     0.638329750000     0.478751150000     0.102758   
H11      H      0.899805725000     0.638329750000     0.978751150000     0.102758   
H12      H      0.324475465000     0.012860760000     0.062671300000     0.112361   
H12      H      0.324475465000     0.012860760000     0.562671300000     0.112361   
H12      H      0.324475465000     0.512860760000     0.062671300000     0.112361   
H12      H      0.324475465000     0.512860760000     0.562671300000     0.112361   
H12      H      0.824475465000     0.012860760000     0.062671300000     0.112361   
H12      H      0.824475465000     0.012860760000     0.562671300000     0.112361   
H12      H      0.824475465000     0.512860760000     0.062671300000     0.112361   
H12      H      0.824475465000     0.512860760000     0.562671300000     0.112361   
H13      H      0.331948950000     0.250163080000     0.098706275000     0.071764   
H13      H      0.331948950000     0.250163080000     0.598706275000     0.071764   
H13      H      0.331948950000     0.750163080000     0.098706275000     0.071764   
H13      H      0.331948950000     0.750163080000     0.598706275000     0.071764   
H13      H      0.831948950000     0.250163080000     0.098706275000     0.071764   
H13      H      0.831948950000     0.250163080000     0.598706275000     0.071764   
H13      H      0.831948950000     0.750163080000     0.098706275000     0.071764   
H13      H      0.831948950000     0.750163080000     0.598706275000     0.071764   
H14      H      0.336454550000     0.080375565000     0.090104700000     0.112361   
H14      H      0.336454550000     0.080375565000     0.590104700000     0.112361   
H14      H      0.336454550000     0.580375565000     0.090104700000     0.112361   
H14      H      0.336454550000     0.580375565000     0.590104700000     0.112361   
H14      H      0.836454550000     0.080375565000     0.090104700000     0.112361   
H14      H      0.836454550000     0.080375565000     0.590104700000     0.112361   
H14      H      0.836454550000     0.580375565000     0.090104700000     0.112361   
H14      H      0.836454550000     0.580375565000     0.590104700000     0.112361   
H15      H      0.493728430000     0.063081300000     0.475755185000     0.178954   
H15      H      0.493728430000     0.063081300000     0.975755185000     0.178954   
H15      H      0.493728430000     0.563081300000     0.475755185000     0.178954   
H15      H      0.493728430000     0.563081300000     0.975755185000     0.178954   
H15      H      0.993728430000     0.063081300000     0.475755185000     0.178954   
H15      H      0.993728430000     0.063081300000     0.975755185000     0.178954   
H15      H      0.993728430000     0.563081300000     0.475755185000     0.178954   
H15      H      0.993728430000     0.563081300000     0.975755185000     0.178954   
H16      H      0.478671135000     0.042105085000     0.441101600000     0.250147   
H16      H      0.478671135000     0.042105085000     0.941101600000     0.250147   
H16      H      0.478671135000     0.542105085000     0.441101600000     0.250147   
H16      H      0.478671135000     0.542105085000     0.941101600000     0.250147   
H16      H      0.978671135000     0.042105085000     0.441101600000     0.250147   
H16      H      0.978671135000     0.042105085000     0.941101600000     0.250147   
H16      H      0.978671135000     0.542105085000     0.441101600000     0.250147   
H16      H      0.978671135000     0.542105085000     0.941101600000     0.250147   
H17      H      0.473661700000     0.492776335000     0.466536150000     0.052182   
H17      H      0.473661700000     0.492776335000     0.966536150000     0.052182   
H17      H      0.473661700000     0.992776335000     0.466536150000     0.052182   
H17      H      0.473661700000     0.992776335000     0.966536150000     0.052182   
H17      H      0.973661700000     0.492776335000     0.466536150000     0.052182   
H17      H      0.973661700000     0.492776335000     0.966536150000     0.052182   
H17      H      0.973661700000     0.992776335000     0.466536150000     0.052182   
H17      H      0.973661700000     0.992776335000     0.966536150000     0.052182   
H18      H      0.260586500000     0.179326280000     0.479742850000    -0.011855   
H18      H      0.260586500000     0.179326280000     0.979742850000    -0.011855   
H18      H      0.260586500000     0.679326280000     0.479742850000    -0.011855   
H18      H      0.260586500000     0.679326280000     0.979742850000    -0.011855   
H18      H      0.760586500000     0.179326280000     0.479742850000    -0.011855   
H18      H      0.760586500000     0.179326280000     0.979742850000    -0.011855   
H18      H      0.760586500000     0.679326280000     0.479742850000    -0.011855   
H18      H      0.760586500000     0.679326280000     0.979742850000    -0.011855   
H19      H      0.330979950000     0.188319430000     0.458069625000    -0.066687   
H19      H      0.330979950000     0.188319430000     0.958069625000    -0.066687   
H19      H      0.330979950000     0.688319430000     0.458069625000    -0.066687   
H19      H      0.330979950000     0.688319430000     0.958069625000    -0.066687   
H19      H      0.830979950000     0.188319430000     0.458069625000    -0.066687   
H19      H      0.830979950000     0.188319430000     0.958069625000    -0.066687   
H19      H      0.830979950000     0.688319430000     0.458069625000    -0.066687   
H19      H      0.830979950000     0.688319430000     0.958069625000    -0.066687   
H20      H      0.283028720000     0.243086115000     0.466131100000    -0.005426   
H20      H      0.283028720000     0.243086115000     0.966131100000    -0.005426   
H20      H      0.283028720000     0.743086115000     0.466131100000    -0.005426   
H20      H      0.283028720000     0.743086115000     0.966131100000    -0.005426   
H20      H      0.783028720000     0.243086115000     0.466131100000    -0.005426   
H20      H      0.783028720000     0.243086115000     0.966131100000    -0.005426   
H20      H      0.783028720000     0.743086115000     0.466131100000    -0.005426   
H20      H      0.783028720000     0.743086115000     0.966131100000    -0.005426   
H21      H      0.442198575000     0.253984570000     0.264400870000    -0.145314   
H21      H      0.442198575000     0.253984570000     0.764400870000    -0.145314   
H21      H      0.442198575000     0.753984570000     0.264400870000    -0.145314   
H21      H      0.442198575000     0.753984570000     0.764400870000    -0.145314   
H21      H      0.942198575000     0.253984570000     0.264400870000    -0.145314   
H21      H      0.942198575000     0.253984570000     0.764400870000    -0.145314   
H21      H      0.942198575000     0.753984570000     0.264400870000    -0.145314   
H21      H      0.942198575000     0.753984570000     0.764400870000    -0.145314   
H22      H      0.228393300000     0.315472750000     0.189949700000    -0.300845   
H22      H      0.228393300000     0.315472750000     0.689949700000    -0.300845   
H22      H      0.228393300000     0.815472750000     0.189949700000    -0.300845   
H22      H      0.228393300000     0.815472750000     0.689949700000    -0.300845   
H22      H      0.728393300000     0.315472750000     0.189949700000    -0.300845   
H22      H      0.728393300000     0.315472750000     0.689949700000    -0.300845   
H22      H      0.728393300000     0.815472750000     0.189949700000    -0.300845   
H22      H      0.728393300000     0.815472750000     0.689949700000    -0.300845   
H23      H      0.418370930000     0.367991700000     0.135432335000     0.134125   
H23      H      0.418370930000     0.367991700000     0.635432335000     0.134125   
H23      H      0.418370930000     0.867991700000     0.135432335000     0.134125   
H23      H      0.418370930000     0.867991700000     0.635432335000     0.134125   
H23      H      0.918370930000     0.367991700000     0.135432335000     0.134125   
H23      H      0.918370930000     0.367991700000     0.635432335000     0.134125   
H23      H      0.918370930000     0.867991700000     0.135432335000     0.134125   
H23      H      0.918370930000     0.867991700000     0.635432335000     0.134125   
H24      H      0.382081420000     0.443385500000     0.393131225000    -0.048968   
H24      H      0.382081420000     0.443385500000     0.893131225000    -0.048968   
H24      H      0.382081420000     0.943385500000     0.393131225000    -0.048968   
H24      H      0.382081420000     0.943385500000     0.893131225000    -0.048968   
H24      H      0.882081420000     0.443385500000     0.393131225000    -0.048968   
H24      H      0.882081420000     0.443385500000     0.893131225000    -0.048968   
H24      H      0.882081420000     0.943385500000     0.393131225000    -0.048968   
H24      H      0.882081420000     0.943385500000     0.893131225000    -0.048968   
C25      C      0.456932650000     0.374398550000     0.035984675000     0.19339    
C25      C      0.456932650000     0.374398550000     0.535984675000     0.19339    
C25      C      0.456932650000     0.874398550000     0.035984675000     0.19339    
C25      C      0.456932650000     0.874398550000     0.535984675000     0.19339    
C25      C      0.956932650000     0.374398550000     0.035984675000     0.19339    
C25      C      0.956932650000     0.374398550000     0.535984675000     0.19339    
C25      C      0.956932650000     0.874398550000     0.035984675000     0.19339    
C25      C      0.956932650000     0.874398550000     0.535984675000     0.19339    
C26      C      0.229505210000     0.326069325000     0.047022135000    -0.111953   
C26      C      0.229505210000     0.326069325000     0.547022135000    -0.111953   
C26      C      0.229505210000     0.826069325000     0.047022135000    -0.111953   
C26      C      0.229505210000     0.826069325000     0.547022135000    -0.111953   
C26      C      0.729505210000     0.326069325000     0.047022135000    -0.111953   
C26      C      0.729505210000     0.326069325000     0.547022135000    -0.111953   
C26      C      0.729505210000     0.826069325000     0.047022135000    -0.111953   
C26      C      0.729505210000     0.826069325000     0.547022135000    -0.111953   
C27      C      0.012330185000     0.343828000000     0.044676750000     0.057815   
C27      C      0.012330185000     0.343828000000     0.544676750000     0.057815   
C27      C      0.012330185000     0.843828000000     0.044676750000     0.057815   
C27      C      0.012330185000     0.843828000000     0.544676750000     0.057815   
C27      C      0.512330185000     0.343828000000     0.044676750000     0.057815   
C27      C      0.512330185000     0.343828000000     0.544676750000     0.057815   
C27      C      0.512330185000     0.843828000000     0.044676750000     0.057815   
C27      C      0.512330185000     0.843828000000     0.544676750000     0.057815   
C28      C      0.173478215000     0.359692930000     0.045853130000     0.009814   
C28      C      0.173478215000     0.359692930000     0.545853130000     0.009814   
C28      C      0.173478215000     0.859692930000     0.045853130000     0.009814   
C28      C      0.173478215000     0.859692930000     0.545853130000     0.009814   
C28      C      0.673478215000     0.359692930000     0.045853130000     0.009814   
C28      C      0.673478215000     0.359692930000     0.545853130000     0.009814   
C28      C      0.673478215000     0.859692930000     0.045853130000     0.009814   
C28      C      0.673478215000     0.859692930000     0.545853130000     0.009814   
C29      C      0.061417120000     0.371101170000     0.058369225000    -0.06044    
C29      C      0.061417120000     0.371101170000     0.558369225000    -0.06044    
C29      C      0.061417120000     0.871101170000     0.058369225000    -0.06044    
C29      C      0.061417120000     0.871101170000     0.558369225000    -0.06044    
C29      C      0.561417120000     0.371101170000     0.058369225000    -0.06044    
C29      C      0.561417120000     0.371101170000     0.558369225000    -0.06044    
C29      C      0.561417120000     0.871101170000     0.058369225000    -0.06044    
C29      C      0.561417120000     0.871101170000     0.558369225000    -0.06044    
C30      C      0.124519015000     0.348143050000     0.062347730000    -0.005479   
C30      C      0.124519015000     0.348143050000     0.562347730000    -0.005479   
C30      C      0.124519015000     0.848143050000     0.062347730000    -0.005479   
C30      C      0.124519015000     0.848143050000     0.562347730000    -0.005479   
C30      C      0.624519015000     0.348143050000     0.062347730000    -0.005479   
C30      C      0.624519015000     0.348143050000     0.562347730000    -0.005479   
C30      C      0.624519015000     0.848143050000     0.062347730000    -0.005479   
C30      C      0.624519015000     0.848143050000     0.562347730000    -0.005479   
C31      C      0.170769990000     0.403895100000     0.025787535000    -0.014539   
C31      C      0.170769990000     0.403895100000     0.525787535000    -0.014539   
C31      C      0.170769990000     0.903895100000     0.025787535000    -0.014539   
C31      C      0.170769990000     0.903895100000     0.525787535000    -0.014539   
C31      C      0.670769990000     0.403895100000     0.025787535000    -0.014539   
C31      C      0.670769990000     0.403895100000     0.525787535000    -0.014539   
C31      C      0.670769990000     0.903895100000     0.025787535000    -0.014539   
C31      C      0.670769990000     0.903895100000     0.525787535000    -0.014539   
C32      C      0.013831970000     0.284545480000     0.037858230000     0.073303   
C32      C      0.013831970000     0.284545480000     0.537858230000     0.073303   
C32      C      0.013831970000     0.784545480000     0.037858230000     0.073303   
C32      C      0.013831970000     0.784545480000     0.537858230000     0.073303   
C32      C      0.513831970000     0.284545480000     0.037858230000     0.073303   
C32      C      0.513831970000     0.284545480000     0.537858230000     0.073303   
C32      C      0.513831970000     0.784545480000     0.037858230000     0.073303   
C32      C      0.513831970000     0.784545480000     0.537858230000     0.073303   
C33      C      0.378295500000     0.038070700000     0.490146520000     0.107781   
C33      C      0.378295500000     0.038070700000     0.990146520000     0.107781   
C33      C      0.378295500000     0.538070700000     0.490146520000     0.107781   
C33      C      0.378295500000     0.538070700000     0.990146520000     0.107781   
C33      C      0.878295500000     0.038070700000     0.490146520000     0.107781   
C33      C      0.878295500000     0.038070700000     0.990146520000     0.107781   
C33      C      0.878295500000     0.538070700000     0.490146520000     0.107781   
C33      C      0.878295500000     0.538070700000     0.990146520000     0.107781   
C34      C      0.336272775000     0.214871500000     0.085778185000    -0.060312   
C34      C      0.336272775000     0.214871500000     0.585778185000    -0.060312   
C34      C      0.336272775000     0.714871500000     0.085778185000    -0.060312   
C34      C      0.336272775000     0.714871500000     0.585778185000    -0.060312   
C34      C      0.836272775000     0.214871500000     0.085778185000    -0.060312   
C34      C      0.836272775000     0.214871500000     0.585778185000    -0.060312   
C34      C      0.836272775000     0.714871500000     0.085778185000    -0.060312   
C34      C      0.836272775000     0.714871500000     0.585778185000    -0.060312   
C35      C      0.333124900000     0.164381300000     0.096903500000    -0.00177    
C35      C      0.333124900000     0.164381300000     0.596903500000    -0.00177    
C35      C      0.333124900000     0.664381300000     0.096903500000    -0.00177    
C35      C      0.333124900000     0.664381300000     0.596903500000    -0.00177    
C35      C      0.833124900000     0.164381300000     0.096903500000    -0.00177    
C35      C      0.833124900000     0.164381300000     0.596903500000    -0.00177    
C35      C      0.833124900000     0.664381300000     0.096903500000    -0.00177    
C35      C      0.833124900000     0.664381300000     0.596903500000    -0.00177    
C36      C      0.337919500000     0.118499575000     0.080434965000    -0.003818   
C36      C      0.337919500000     0.118499575000     0.580434965000    -0.003818   
C36      C      0.337919500000     0.618499575000     0.080434965000    -0.003818   
C36      C      0.337919500000     0.618499575000     0.580434965000    -0.003818   
C36      C      0.837919500000     0.118499575000     0.080434965000    -0.003818   
C36      C      0.837919500000     0.118499575000     0.580434965000    -0.003818   
C36      C      0.837919500000     0.618499575000     0.080434965000    -0.003818   
C36      C      0.837919500000     0.618499575000     0.580434965000    -0.003818   
C37      C      0.346351900000     0.122348265000     0.052451150000     0.340504   
C37      C      0.346351900000     0.122348265000     0.552451150000     0.340504   
C37      C      0.346351900000     0.622348265000     0.052451150000     0.340504   
C37      C      0.346351900000     0.622348265000     0.552451150000     0.340504   
C37      C      0.846351900000     0.122348265000     0.052451150000     0.340504   
C37      C      0.846351900000     0.122348265000     0.552451150000     0.340504   
C37      C      0.846351900000     0.622348265000     0.052451150000     0.340504   
C37      C      0.846351900000     0.622348265000     0.552451150000     0.340504   
C38      C      0.349195330000     0.175079285000     0.041532080000     0.210381   
C38      C      0.349195330000     0.175079285000     0.541532080000     0.210381   
C38      C      0.349195330000     0.675079285000     0.041532080000     0.210381   
C38      C      0.349195330000     0.675079285000     0.541532080000     0.210381   
C38      C      0.849195330000     0.175079285000     0.041532080000     0.210381   
C38      C      0.849195330000     0.175079285000     0.541532080000     0.210381   
C38      C      0.849195330000     0.675079285000     0.041532080000     0.210381   
C38      C      0.849195330000     0.675079285000     0.541532080000     0.210381   
C39      C      0.351497770000     0.075586790000     0.034859780000     0.220532   
C39      C      0.351497770000     0.075586790000     0.534859780000     0.220532   
C39      C      0.351497770000     0.575586790000     0.034859780000     0.220532   
C39      C      0.351497770000     0.575586790000     0.534859780000     0.220532   
C39      C      0.851497770000     0.075586790000     0.034859780000     0.220532   
C39      C      0.851497770000     0.075586790000     0.534859780000     0.220532   
C39      C      0.851497770000     0.575586790000     0.034859780000     0.220532   
C39      C      0.851497770000     0.575586790000     0.534859780000     0.220532   
C40      C      0.371796750000     0.082267635000     0.008119860000    -0.082276   
C40      C      0.371796750000     0.082267635000     0.508119860000    -0.082276   
C40      C      0.371796750000     0.582267635000     0.008119860000    -0.082276   
C40      C      0.371796750000     0.582267635000     0.508119860000    -0.082276   
C40      C      0.871796750000     0.082267635000     0.008119860000    -0.082276   
C40      C      0.871796750000     0.082267635000     0.508119860000    -0.082276   
C40      C      0.871796750000     0.582267635000     0.008119860000    -0.082276   
C40      C      0.871796750000     0.582267635000     0.508119860000    -0.082276   
C41      C      0.381785780000     0.133145465000     0.498848470000     0.063235   
C41      C      0.381785780000     0.133145465000     0.998848470000     0.063235   
C41      C      0.381785780000     0.633145465000     0.498848470000     0.063235   
C41      C      0.381785780000     0.633145465000     0.998848470000     0.063235   
C41      C      0.881785780000     0.133145465000     0.498848470000     0.063235   
C41      C      0.881785780000     0.133145465000     0.998848470000     0.063235   
C41      C      0.881785780000     0.633145465000     0.498848470000     0.063235   
C41      C      0.881785780000     0.633145465000     0.998848470000     0.063235   
C42      C      0.357832880000     0.177226620000     0.012772295000    -0.070034   
C42      C      0.357832880000     0.177226620000     0.512772295000    -0.070034   
C42      C      0.357832880000     0.677226620000     0.012772295000    -0.070034   
C42      C      0.357832880000     0.677226620000     0.512772295000    -0.070034   
C42      C      0.857832880000     0.177226620000     0.012772295000    -0.070034   
C42      C      0.857832880000     0.177226620000     0.512772295000    -0.070034   
C42      C      0.857832880000     0.677226620000     0.012772295000    -0.070034   
C42      C      0.857832880000     0.677226620000     0.512772295000    -0.070034   
C43      C      0.337964835000     0.022153385000     0.042439195000     0.126448   
C43      C      0.337964835000     0.022153385000     0.542439195000     0.126448   
C43      C      0.337964835000     0.522153385000     0.042439195000     0.126448   
C43      C      0.337964835000     0.522153385000     0.542439195000     0.126448   
C43      C      0.837964835000     0.022153385000     0.042439195000     0.126448   
C43      C      0.837964835000     0.022153385000     0.542439195000     0.126448   
C43      C      0.837964835000     0.522153385000     0.042439195000     0.126448   
C43      C      0.837964835000     0.522153385000     0.542439195000     0.126448   
C44      C      0.360533650000     0.487328950000     0.498512925000    -0.046875   
C44      C      0.360533650000     0.487328950000     0.998512925000    -0.046875   
C44      C      0.360533650000     0.987328950000     0.498512925000    -0.046875   
C44      C      0.360533650000     0.987328950000     0.998512925000    -0.046875   
C44      C      0.860533650000     0.487328950000     0.498512925000    -0.046875   
C44      C      0.860533650000     0.487328950000     0.998512925000    -0.046875   
C44      C      0.860533650000     0.987328950000     0.498512925000    -0.046875   
C44      C      0.860533650000     0.987328950000     0.998512925000    -0.046875   
C45      C      0.463557870000     0.035086455000     0.462054580000    -0.019967   
C45      C      0.463557870000     0.035086455000     0.962054580000    -0.019967   
C45      C      0.463557870000     0.535086455000     0.462054580000    -0.019967   
C45      C      0.463557870000     0.535086455000     0.962054580000    -0.019967   
C45      C      0.963557870000     0.035086455000     0.462054580000    -0.019967   
C45      C      0.963557870000     0.035086455000     0.962054580000    -0.019967   
C45      C      0.963557870000     0.535086455000     0.462054580000    -0.019967   
C45      C      0.963557870000     0.535086455000     0.962054580000    -0.019967   
C46      C      0.302723380000     0.206331910000     0.474579100000     0.029608   
C46      C      0.302723380000     0.206331910000     0.974579100000     0.029608   
C46      C      0.302723380000     0.706331910000     0.474579100000     0.029608   
C46      C      0.302723380000     0.706331910000     0.974579100000     0.029608   
C46      C      0.802723380000     0.206331910000     0.474579100000     0.029608   
C46      C      0.802723380000     0.206331910000     0.974579100000     0.029608   
C46      C      0.802723380000     0.706331910000     0.474579100000     0.029608   
C46      C      0.802723380000     0.706331910000     0.974579100000     0.029608   
C47      C      0.365696280000     0.372300685000     0.479078700000    -0.058763   
C47      C      0.365696280000     0.372300685000     0.979078700000    -0.058763   
C47      C      0.365696280000     0.872300685000     0.479078700000    -0.058763   
C47      C      0.365696280000     0.872300685000     0.979078700000    -0.058763   
C47      C      0.865696280000     0.372300685000     0.479078700000    -0.058763   
C47      C      0.865696280000     0.372300685000     0.979078700000    -0.058763   
C47      C      0.865696280000     0.872300685000     0.479078700000    -0.058763   
C47      C      0.865696280000     0.872300685000     0.979078700000    -0.058763   
C48      C      0.303809315000     0.386871220000     0.349284530000     0.099397   
C48      C      0.303809315000     0.386871220000     0.849284530000     0.099397   
C48      C      0.303809315000     0.886871220000     0.349284530000     0.099397   
C48      C      0.303809315000     0.886871220000     0.849284530000     0.099397   
C48      C      0.803809315000     0.386871220000     0.349284530000     0.099397   
C48      C      0.803809315000     0.386871220000     0.849284530000     0.099397   
C48      C      0.803809315000     0.886871220000     0.349284530000     0.099397   
C48      C      0.803809315000     0.886871220000     0.849284530000     0.099397   
C49      C      0.391762150000     0.327247920000     0.347692600000     0.090209   
C49      C      0.391762150000     0.327247920000     0.847692600000     0.090209   
C49      C      0.391762150000     0.827247920000     0.347692600000     0.090209   
C49      C      0.391762150000     0.827247920000     0.847692600000     0.090209   
C49      C      0.891762150000     0.327247920000     0.347692600000     0.090209   
C49      C      0.891762150000     0.327247920000     0.847692600000     0.090209   
C49      C      0.891762150000     0.827247920000     0.347692600000     0.090209   
C49      C      0.891762150000     0.827247920000     0.847692600000     0.090209   
C50      C      0.383726650000     0.320514200000     0.319284915000     0.19205    
C50      C      0.383726650000     0.320514200000     0.819284915000     0.19205    
C50      C      0.383726650000     0.820514200000     0.319284915000     0.19205    
C50      C      0.383726650000     0.820514200000     0.819284915000     0.19205    
C50      C      0.883726650000     0.320514200000     0.319284915000     0.19205    
C50      C      0.883726650000     0.320514200000     0.819284915000     0.19205    
C50      C      0.883726650000     0.820514200000     0.319284915000     0.19205    
C50      C      0.883726650000     0.820514200000     0.819284915000     0.19205    
C51      C      0.339845150000     0.353964800000     0.305631000000     0.206107   
C51      C      0.339845150000     0.353964800000     0.805631000000     0.206107   
C51      C      0.339845150000     0.853964800000     0.305631000000     0.206107   
C51      C      0.339845150000     0.853964800000     0.805631000000     0.206107   
C51      C      0.839845150000     0.353964800000     0.305631000000     0.206107   
C51      C      0.839845150000     0.353964800000     0.805631000000     0.206107   
C51      C      0.839845150000     0.853964800000     0.305631000000     0.206107   
C51      C      0.839845150000     0.853964800000     0.805631000000     0.206107   
C52      C      0.300322175000     0.388374550000     0.320681550000    -0.110489   
C52      C      0.300322175000     0.388374550000     0.820681550000    -0.110489   
C52      C      0.300322175000     0.888374550000     0.320681550000    -0.110489   
C52      C      0.300322175000     0.888374550000     0.820681550000    -0.110489   
C52      C      0.800322175000     0.388374550000     0.320681550000    -0.110489   
C52      C      0.800322175000     0.388374550000     0.820681550000    -0.110489   
C52      C      0.800322175000     0.888374550000     0.320681550000    -0.110489   
C52      C      0.800322175000     0.888374550000     0.820681550000    -0.110489   
C53      C      0.418911785000     0.282640280000     0.304018320000     0.168824   
C53      C      0.418911785000     0.282640280000     0.804018320000     0.168824   
C53      C      0.418911785000     0.782640280000     0.304018320000     0.168824   
C53      C      0.418911785000     0.782640280000     0.804018320000     0.168824   
C53      C      0.918911785000     0.282640280000     0.304018320000     0.168824   
C53      C      0.918911785000     0.282640280000     0.804018320000     0.168824   
C53      C      0.918911785000     0.782640280000     0.304018320000     0.168824   
C53      C      0.918911785000     0.782640280000     0.804018320000     0.168824   
C54      C      0.414870950000     0.282839450000     0.275779800000    -0.087985   
C54      C      0.414870950000     0.282839450000     0.775779800000    -0.087985   
C54      C      0.414870950000     0.782839450000     0.275779800000    -0.087985   
C54      C      0.414870950000     0.782839450000     0.775779800000    -0.087985   
C54      C      0.914870950000     0.282839450000     0.275779800000    -0.087985   
C54      C      0.914870950000     0.282839450000     0.775779800000    -0.087985   
C54      C      0.914870950000     0.782839450000     0.275779800000    -0.087985   
C54      C      0.914870950000     0.782839450000     0.775779800000    -0.087985   
C55      C      0.374384285000     0.317705125000     0.262119700000     0.012095   
C55      C      0.374384285000     0.317705125000     0.762119700000     0.012095   
C55      C      0.374384285000     0.817705125000     0.262119700000     0.012095   
C55      C      0.374384285000     0.817705125000     0.762119700000     0.012095   
C55      C      0.874384285000     0.317705125000     0.262119700000     0.012095   
C55      C      0.874384285000     0.317705125000     0.762119700000     0.012095   
C55      C      0.874384285000     0.817705125000     0.262119700000     0.012095   
C55      C      0.874384285000     0.817705125000     0.762119700000     0.012095   
C56      C      0.335784970000     0.353056430000     0.276925770000     0.04088    
C56      C      0.335784970000     0.353056430000     0.776925770000     0.04088    
C56      C      0.335784970000     0.853056430000     0.276925770000     0.04088    
C56      C      0.335784970000     0.853056430000     0.776925770000     0.04088    
C56      C      0.835784970000     0.353056430000     0.276925770000     0.04088    
C56      C      0.835784970000     0.353056430000     0.776925770000     0.04088    
C56      C      0.835784970000     0.853056430000     0.276925770000     0.04088    
C56      C      0.835784970000     0.853056430000     0.776925770000     0.04088    
C57      C      0.293351250000     0.387177320000     0.263016970000     0.127468   
C57      C      0.293351250000     0.387177320000     0.763016970000     0.127468   
C57      C      0.293351250000     0.887177320000     0.263016970000     0.127468   
C57      C      0.293351250000     0.887177320000     0.763016970000     0.127468   
C57      C      0.793351250000     0.387177320000     0.263016970000     0.127468   
C57      C      0.793351250000     0.387177320000     0.763016970000     0.127468   
C57      C      0.793351250000     0.887177320000     0.263016970000     0.127468   
C57      C      0.793351250000     0.887177320000     0.763016970000     0.127468   
C58      C      0.253867475000     0.421725750000     0.278392700000     0.012392   
C58      C      0.253867475000     0.421725750000     0.778392700000     0.012392   
C58      C      0.253867475000     0.921725750000     0.278392700000     0.012392   
C58      C      0.253867475000     0.921725750000     0.778392700000     0.012392   
C58      C      0.753867475000     0.421725750000     0.278392700000     0.012392   
C58      C      0.753867475000     0.421725750000     0.778392700000     0.012392   
C58      C      0.753867475000     0.921725750000     0.278392700000     0.012392   
C58      C      0.753867475000     0.921725750000     0.778392700000     0.012392   
C59      C      0.258020050000     0.422560600000     0.306821600000     0.174082   
C59      C      0.258020050000     0.422560600000     0.806821600000     0.174082   
C59      C      0.258020050000     0.922560600000     0.306821600000     0.174082   
C59      C      0.258020050000     0.922560600000     0.806821600000     0.174082   
C59      C      0.758020050000     0.422560600000     0.306821600000     0.174082   
C59      C      0.758020050000     0.422560600000     0.806821600000     0.174082   
C59      C      0.758020050000     0.922560600000     0.306821600000     0.174082   
C59      C      0.758020050000     0.922560600000     0.806821600000     0.174082   
C60      C      0.370549600000     0.316649000000     0.233755515000    -0.153913   
C60      C      0.370549600000     0.316649000000     0.733755515000    -0.153913   
C60      C      0.370549600000     0.816649000000     0.233755515000    -0.153913   
C60      C      0.370549600000     0.816649000000     0.733755515000    -0.153913   
C60      C      0.870549600000     0.316649000000     0.233755515000    -0.153913   
C60      C      0.870549600000     0.316649000000     0.733755515000    -0.153913   
C60      C      0.870549600000     0.816649000000     0.233755515000    -0.153913   
C60      C      0.870549600000     0.816649000000     0.733755515000    -0.153913   
C61      C      0.292775750000     0.385319200000     0.234240310000     0.182601   
C61      C      0.292775750000     0.385319200000     0.734240310000     0.182601   
C61      C      0.292775750000     0.885319200000     0.234240310000     0.182601   
C61      C      0.292775750000     0.885319200000     0.734240310000     0.182601   
C61      C      0.792775750000     0.385319200000     0.234240310000     0.182601   
C61      C      0.792775750000     0.385319200000     0.734240310000     0.182601   
C61      C      0.792775750000     0.885319200000     0.234240310000     0.182601   
C61      C      0.792775750000     0.885319200000     0.734240310000     0.182601   
C62      C      0.269886820000     0.327098400000     0.178032665000    -0.131777   
C62      C      0.269886820000     0.327098400000     0.678032665000    -0.131777   
C62      C      0.269886820000     0.827098400000     0.178032665000    -0.131777   
C62      C      0.269886820000     0.827098400000     0.678032665000    -0.131777   
C62      C      0.769886820000     0.327098400000     0.178032665000    -0.131777   
C62      C      0.769886820000     0.327098400000     0.678032665000    -0.131777   
C62      C      0.769886820000     0.827098400000     0.178032665000    -0.131777   
C62      C      0.769886820000     0.827098400000     0.678032665000    -0.131777   
C63      C      0.264933300000     0.321065850000     0.149880140000     0.13956    
C63      C      0.264933300000     0.321065850000     0.649880140000     0.13956    
C63      C      0.264933300000     0.821065850000     0.149880140000     0.13956    
C63      C      0.264933300000     0.821065850000     0.649880140000     0.13956    
C63      C      0.764933300000     0.321065850000     0.149880140000     0.13956    
C63      C      0.764933300000     0.321065850000     0.649880140000     0.13956    
C63      C      0.764933300000     0.821065850000     0.149880140000     0.13956    
C63      C      0.764933300000     0.821065850000     0.649880140000     0.13956    
C64      C      0.319287550000     0.334827650000     0.134054915000     0.285065   
C64      C      0.319287550000     0.334827650000     0.634054915000     0.285065   
C64      C      0.319287550000     0.834827650000     0.134054915000     0.285065   
C64      C      0.319287550000     0.834827650000     0.634054915000     0.285065   
C64      C      0.819287550000     0.334827650000     0.134054915000     0.285065   
C64      C      0.819287550000     0.334827650000     0.634054915000     0.285065   
C64      C      0.819287550000     0.834827650000     0.134054915000     0.285065   
C64      C      0.819287550000     0.834827650000     0.634054915000     0.285065   
C65      C      0.376721950000     0.356513975000     0.147287535000    -0.133745   
C65      C      0.376721950000     0.356513975000     0.647287535000    -0.133745   
C65      C      0.376721950000     0.856513975000     0.147287535000    -0.133745   
C65      C      0.376721950000     0.856513975000     0.647287535000    -0.133745   
C65      C      0.876721950000     0.356513975000     0.147287535000    -0.133745   
C65      C      0.876721950000     0.356513975000     0.647287535000    -0.133745   
C65      C      0.876721950000     0.856513975000     0.147287535000    -0.133745   
C65      C      0.876721950000     0.856513975000     0.647287535000    -0.133745   
C66      C      0.381230700000     0.364128320000     0.175589300000    -0.355676   
C66      C      0.381230700000     0.364128320000     0.675589300000    -0.355676   
C66      C      0.381230700000     0.864128320000     0.175589300000    -0.355676   
C66      C      0.381230700000     0.864128320000     0.675589300000    -0.355676   
C66      C      0.881230700000     0.364128320000     0.175589300000    -0.355676   
C66      C      0.881230700000     0.364128320000     0.675589300000    -0.355676   
C66      C      0.881230700000     0.864128320000     0.175589300000    -0.355676   
C66      C      0.881230700000     0.864128320000     0.675589300000    -0.355676   
C67      C      0.327385450000     0.347996000000     0.191167130000    -0.269637   
C67      C      0.327385450000     0.347996000000     0.691167130000    -0.269637   
C67      C      0.327385450000     0.847996000000     0.191167130000    -0.269637   
C67      C      0.327385450000     0.847996000000     0.691167130000    -0.269637   
C67      C      0.827385450000     0.347996000000     0.191167130000    -0.269637   
C67      C      0.827385450000     0.347996000000     0.691167130000    -0.269637   
C67      C      0.827385450000     0.847996000000     0.191167130000    -0.269637   
C67      C      0.827385450000     0.847996000000     0.691167130000    -0.269637   
C68      C      0.340609225000     0.313960650000     0.406568470000    -0.118988   
C68      C      0.340609225000     0.313960650000     0.906568470000    -0.118988   
C68      C      0.340609225000     0.813960650000     0.406568470000    -0.118988   
C68      C      0.340609225000     0.813960650000     0.906568470000    -0.118988   
C68      C      0.840609225000     0.313960650000     0.406568470000    -0.118988   
C68      C      0.840609225000     0.313960650000     0.906568470000    -0.118988   
C68      C      0.840609225000     0.813960650000     0.406568470000    -0.118988   
C68      C      0.840609225000     0.813960650000     0.906568470000    -0.118988   
C69      C      0.346502100000     0.317161200000     0.435106635000    -0.186411   
C69      C      0.346502100000     0.317161200000     0.935106635000    -0.186411   
C69      C      0.346502100000     0.817161200000     0.435106635000    -0.186411   
C69      C      0.346502100000     0.817161200000     0.935106635000    -0.186411   
C69      C      0.846502100000     0.317161200000     0.435106635000    -0.186411   
C69      C      0.846502100000     0.317161200000     0.935106635000    -0.186411   
C69      C      0.846502100000     0.817161200000     0.435106635000    -0.186411   
C69      C      0.846502100000     0.817161200000     0.935106635000    -0.186411   
C70      C      0.362357230000     0.367275950000     0.448815970000    -0.227542   
C70      C      0.362357230000     0.367275950000     0.948815970000    -0.227542   
C70      C      0.362357230000     0.867275950000     0.448815970000    -0.227542   
C70      C      0.362357230000     0.867275950000     0.948815970000    -0.227542   
C70      C      0.862357230000     0.367275950000     0.448815970000    -0.227542   
C70      C      0.862357230000     0.367275950000     0.948815970000    -0.227542   
C70      C      0.862357230000     0.867275950000     0.448815970000    -0.227542   
C70      C      0.862357230000     0.867275950000     0.948815970000    -0.227542   
C71      C      0.374490900000     0.412930875000     0.432999750000    -0.179114   
C71      C      0.374490900000     0.412930875000     0.932999750000    -0.179114   
C71      C      0.374490900000     0.912930875000     0.432999750000    -0.179114   
C71      C      0.374490900000     0.912930875000     0.932999750000    -0.179114   
C71      C      0.874490900000     0.412930875000     0.432999750000    -0.179114   
C71      C      0.874490900000     0.412930875000     0.932999750000    -0.179114   
C71      C      0.874490900000     0.912930875000     0.432999750000    -0.179114   
C71      C      0.874490900000     0.912930875000     0.932999750000    -0.179114   
C72      C      0.372041375000     0.408226050000     0.404833585000    -0.168856   
C72      C      0.372041375000     0.408226050000     0.904833585000    -0.168856   
C72      C      0.372041375000     0.908226050000     0.404833585000    -0.168856   
C72      C      0.372041375000     0.908226050000     0.904833585000    -0.168856   
C72      C      0.872041375000     0.408226050000     0.404833585000    -0.168856   
C72      C      0.872041375000     0.408226050000     0.904833585000    -0.168856   
C72      C      0.872041375000     0.908226050000     0.404833585000    -0.168856   
C72      C      0.872041375000     0.908226050000     0.904833585000    -0.168856   
C73      C      0.354692100000     0.359509900000     0.391368150000    -0.160998   
C73      C      0.354692100000     0.359509900000     0.891368150000    -0.160998   
C73      C      0.354692100000     0.859509900000     0.391368150000    -0.160998   
C73      C      0.354692100000     0.859509900000     0.891368150000    -0.160998   
C73      C      0.854692100000     0.359509900000     0.391368150000    -0.160998   
C73      C      0.854692100000     0.359509900000     0.891368150000    -0.160998   
C73      C      0.854692100000     0.859509900000     0.391368150000    -0.160998   
C73      C      0.854692100000     0.859509900000     0.891368150000    -0.160998   
C74      C      0.317434950000     0.328011050000     0.104017350000    -0.007158   
C74      C      0.317434950000     0.328011050000     0.604017350000    -0.007158   
C74      C      0.317434950000     0.828011050000     0.104017350000    -0.007158   
C74      C      0.317434950000     0.828011050000     0.604017350000    -0.007158   
C74      C      0.817434950000     0.328011050000     0.104017350000    -0.007158   
C74      C      0.817434950000     0.328011050000     0.604017350000    -0.007158   
C74      C      0.817434950000     0.828011050000     0.104017350000    -0.007158   
C74      C      0.817434950000     0.828011050000     0.604017350000    -0.007158   
Br75     Br     0.309879000000     0.248038620000     0.388152200000    -0.032921   
Br75     Br     0.309879000000     0.248038620000     0.888152200000    -0.032921   
Br75     Br     0.309879000000     0.748038620000     0.388152200000    -0.032921   
Br75     Br     0.309879000000     0.748038620000     0.888152200000    -0.032921   
Br75     Br     0.809879000000     0.248038620000     0.388152200000    -0.032921   
Br75     Br     0.809879000000     0.248038620000     0.888152200000    -0.032921   
Br75     Br     0.809879000000     0.748038620000     0.388152200000    -0.032921   
Br75     Br     0.809879000000     0.748038620000     0.888152200000    -0.032921   
Br76     Br     0.336356050000     0.251401900000     0.454430650000    -0.012645   
Br76     Br     0.336356050000     0.251401900000     0.954430650000    -0.012645   
Br76     Br     0.336356050000     0.751401900000     0.454430650000    -0.012645   
Br76     Br     0.336356050000     0.751401900000     0.954430650000    -0.012645   
Br76     Br     0.836356050000     0.251401900000     0.454430650000    -0.012645   
Br76     Br     0.836356050000     0.251401900000     0.954430650000    -0.012645   
Br76     Br     0.836356050000     0.751401900000     0.454430650000    -0.012645   
Br76     Br     0.836356050000     0.751401900000     0.954430650000    -0.012645   
Br77     Br     0.390730975000     0.484549000000     0.447891100000    -0.286755   
Br77     Br     0.390730975000     0.484549000000     0.947891100000    -0.286755   
Br77     Br     0.390730975000     0.984549000000     0.447891100000    -0.286755   
Br77     Br     0.390730975000     0.984549000000     0.947891100000    -0.286755   
Br77     Br     0.890730975000     0.484549000000     0.447891100000    -0.286755   
Br77     Br     0.890730975000     0.484549000000     0.947891100000    -0.286755   
Br77     Br     0.890730975000     0.984549000000     0.447891100000    -0.286755   
Br77     Br     0.890730975000     0.984549000000     0.947891100000    -0.286755   
Br78     Br     0.191987010000     0.469326170000     0.262444050000    -0.411864   
Br78     Br     0.191987010000     0.469326170000     0.762444050000    -0.411864   
Br78     Br     0.191987010000     0.969326170000     0.262444050000    -0.411864   
Br78     Br     0.191987010000     0.969326170000     0.762444050000    -0.411864   
Br78     Br     0.691987010000     0.469326170000     0.262444050000    -0.411864   
Br78     Br     0.691987010000     0.469326170000     0.762444050000    -0.411864   
Br78     Br     0.691987010000     0.969326170000     0.262444050000    -0.411864   
Br78     Br     0.691987010000     0.969326170000     0.762444050000    -0.411864   
Br79     Br     0.180837630000     0.297030400000     0.134745465000    -0.377836   
Br79     Br     0.180837630000     0.297030400000     0.634745465000    -0.377836   
Br79     Br     0.180837630000     0.797030400000     0.134745465000    -0.377836   
Br79     Br     0.180837630000     0.797030400000     0.634745465000    -0.377836   
Br79     Br     0.680837630000     0.297030400000     0.134745465000    -0.377836   
Br79     Br     0.680837630000     0.297030400000     0.634745465000    -0.377836   
Br79     Br     0.680837630000     0.797030400000     0.134745465000    -0.377836   
Br79     Br     0.680837630000     0.797030400000     0.634745465000    -0.377836   
N80      N      0.342101400000     0.480320900000     0.024141640000    -0.754905   
N80      N      0.342101400000     0.480320900000     0.524141640000    -0.754905   
N80      N      0.342101400000     0.980320900000     0.024141640000    -0.754905   
N80      N      0.342101400000     0.980320900000     0.524141640000    -0.754905   
N80      N      0.842101400000     0.480320900000     0.024141640000    -0.754905   
N80      N      0.842101400000     0.480320900000     0.524141640000    -0.754905   
N80      N      0.842101400000     0.980320900000     0.024141640000    -0.754905   
N80      N      0.842101400000     0.980320900000     0.524141640000    -0.754905   
N81      N      0.344099100000     0.220395415000     0.058888285000    -0.778348   
N81      N      0.344099100000     0.220395415000     0.558888285000    -0.778348   
N81      N      0.344099100000     0.720395415000     0.058888285000    -0.778348   
N81      N      0.344099100000     0.720395415000     0.558888285000    -0.778348   
N81      N      0.844099100000     0.220395415000     0.058888285000    -0.778348   
N81      N      0.844099100000     0.220395415000     0.558888285000    -0.778348   
N81      N      0.844099100000     0.720395415000     0.058888285000    -0.778348   
N81      N      0.844099100000     0.720395415000     0.558888285000    -0.778348   
N82      N      0.349584500000     0.357326270000     0.362112050000    -0.120213   
N82      N      0.349584500000     0.357326270000     0.862112050000    -0.120213   
N82      N      0.349584500000     0.857326270000     0.362112050000    -0.120213   
N82      N      0.349584500000     0.857326270000     0.862112050000    -0.120213   
N82      N      0.849584500000     0.357326270000     0.362112050000    -0.120213   
N82      N      0.849584500000     0.357326270000     0.862112050000    -0.120213   
N82      N      0.849584500000     0.857326270000     0.362112050000    -0.120213   
N82      N      0.849584500000     0.857326270000     0.862112050000    -0.120213   
N83      N      0.330926150000     0.350530300000     0.220406160000    -0.160009   
N83      N      0.330926150000     0.350530300000     0.720406160000    -0.160009   
N83      N      0.330926150000     0.850530300000     0.220406160000    -0.160009   
N83      N      0.330926150000     0.850530300000     0.720406160000    -0.160009   
N83      N      0.830926150000     0.350530300000     0.220406160000    -0.160009   
N83      N      0.830926150000     0.350530300000     0.720406160000    -0.160009   
N83      N      0.830926150000     0.850530300000     0.220406160000    -0.160009   
N83      N      0.830926150000     0.850530300000     0.720406160000    -0.160009   
N84      N      0.440056250000     0.388669550000     0.188047020000    -0.333425   
N84      N      0.440056250000     0.388669550000     0.688047020000    -0.333425   
N84      N      0.440056250000     0.888669550000     0.188047020000    -0.333425   
N84      N      0.440056250000     0.888669550000     0.688047020000    -0.333425   
N84      N      0.940056250000     0.388669550000     0.188047020000    -0.333425   
N84      N      0.940056250000     0.388669550000     0.688047020000    -0.333425   
N84      N      0.940056250000     0.888669550000     0.188047020000    -0.333425   
N84      N      0.940056250000     0.888669550000     0.688047020000    -0.333425   
N85      N      0.454186680000     0.240609150000     0.316448800000    -0.254625   
N85      N      0.454186680000     0.240609150000     0.816448800000    -0.254625   
N85      N      0.454186680000     0.740609150000     0.316448800000    -0.254625   
N85      N      0.454186680000     0.740609150000     0.816448800000    -0.254625   
N85      N      0.954186680000     0.240609150000     0.316448800000    -0.254625   
N85      N      0.954186680000     0.240609150000     0.816448800000    -0.254625   
N85      N      0.954186680000     0.740609150000     0.316448800000    -0.254625   
N85      N      0.954186680000     0.740609150000     0.816448800000    -0.254625   
N86      N      0.220543050000     0.460362015000     0.321439950000    -0.150596   
N86      N      0.220543050000     0.460362015000     0.821439950000    -0.150596   
N86      N      0.220543050000     0.960362015000     0.321439950000    -0.150596   
N86      N      0.220543050000     0.960362015000     0.821439950000    -0.150596   
N86      N      0.720543050000     0.460362015000     0.321439950000    -0.150596   
N86      N      0.720543050000     0.460362015000     0.821439950000    -0.150596   
N86      N      0.720543050000     0.960362015000     0.321439950000    -0.150596   
N86      N      0.720543050000     0.960362015000     0.821439950000    -0.150596   
Cl87     Cl     0.323180230000     0.158593625000     0.131758150000    -0.145525   
Cl87     Cl     0.323180230000     0.158593625000     0.631758150000    -0.145525   
Cl87     Cl     0.323180230000     0.658593625000     0.131758150000    -0.145525   
Cl87     Cl     0.323180230000     0.658593625000     0.631758150000    -0.145525   
Cl87     Cl     0.823180230000     0.158593625000     0.131758150000    -0.145525   
Cl87     Cl     0.823180230000     0.158593625000     0.631758150000    -0.145525   
Cl87     Cl     0.823180230000     0.658593625000     0.131758150000    -0.145525   
Cl87     Cl     0.823180230000     0.658593625000     0.631758150000    -0.145525   
O88      O      0.467208700000     0.424772770000     0.032420095000    -0.149911   
O88      O      0.467208700000     0.424772770000     0.532420095000    -0.149911   
O88      O      0.467208700000     0.924772770000     0.032420095000    -0.149911   
O88      O      0.467208700000     0.924772770000     0.532420095000    -0.149911   
O88      O      0.967208700000     0.424772770000     0.032420095000    -0.149911   
O88      O      0.967208700000     0.424772770000     0.532420095000    -0.149911   
O88      O      0.967208700000     0.924772770000     0.032420095000    -0.149911   
O88      O      0.967208700000     0.924772770000     0.532420095000    -0.149911   
O89      O      0.219339900000     0.275171300000     0.049131115000    -0.14046    
O89      O      0.219339900000     0.275171300000     0.549131115000    -0.14046    
O89      O      0.219339900000     0.775171300000     0.049131115000    -0.14046    
O89      O      0.219339900000     0.775171300000     0.549131115000    -0.14046    
O89      O      0.719339900000     0.275171300000     0.049131115000    -0.14046    
O89      O      0.719339900000     0.275171300000     0.549131115000    -0.14046    
O89      O      0.719339900000     0.775171300000     0.049131115000    -0.14046    
O89      O      0.719339900000     0.775171300000     0.549131115000    -0.14046    
O90      O      0.399115300000     0.352032100000     0.033892135000    -0.304821   
O90      O      0.399115300000     0.352032100000     0.533892135000    -0.304821   
O90      O      0.399115300000     0.852032100000     0.033892135000    -0.304821   
O90      O      0.399115300000     0.852032100000     0.533892135000    -0.304821   
O90      O      0.899115300000     0.352032100000     0.033892135000    -0.304821   
O90      O      0.899115300000     0.352032100000     0.533892135000    -0.304821   
O90      O      0.899115300000     0.852032100000     0.033892135000    -0.304821   
O90      O      0.899115300000     0.852032100000     0.533892135000    -0.304821   
O91      O      0.287433300000     0.347912000000     0.047659075000    -0.290019   
O91      O      0.287433300000     0.347912000000     0.547659075000    -0.290019   
O91      O      0.287433300000     0.847912000000     0.047659075000    -0.290019   
O91      O      0.287433300000     0.847912000000     0.547659075000    -0.290019   
O91      O      0.787433300000     0.347912000000     0.047659075000    -0.290019   
O91      O      0.787433300000     0.347912000000     0.547659075000    -0.290019   
O91      O      0.787433300000     0.847912000000     0.047659075000    -0.290019   
O91      O      0.787433300000     0.847912000000     0.547659075000    -0.290019   
O92      O      0.396295575000     0.044741425000     0.463734850000    -0.065414   
O92      O      0.396295575000     0.044741425000     0.963734850000    -0.065414   
O92      O      0.396295575000     0.544741425000     0.463734850000    -0.065414   
O92      O      0.396295575000     0.544741425000     0.963734850000    -0.065414   
O92      O      0.896295575000     0.044741425000     0.463734850000    -0.065414   
O92      O      0.896295575000     0.044741425000     0.963734850000    -0.065414   
O92      O      0.896295575000     0.544741425000     0.463734850000    -0.065414   
O92      O      0.896295575000     0.544741425000     0.963734850000    -0.065414   
O93      O      0.343307800000     0.220903380000     0.497614920000    -0.070503   
O93      O      0.343307800000     0.220903380000     0.997614920000    -0.070503   
O93      O      0.343307800000     0.720903380000     0.497614920000    -0.070503   
O93      O      0.343307800000     0.720903380000     0.997614920000    -0.070503   
O93      O      0.843307800000     0.220903380000     0.497614920000    -0.070503   
O93      O      0.843307800000     0.220903380000     0.997614920000    -0.070503   
O93      O      0.843307800000     0.720903380000     0.497614920000    -0.070503   
O93      O      0.843307800000     0.720903380000     0.997614920000    -0.070503   
O94      O      0.405454070000     0.408769500000     0.490314150000    -0.049364   
O94      O      0.405454070000     0.408769500000     0.990314150000    -0.049364   
O94      O      0.405454070000     0.908769500000     0.490314150000    -0.049364   
O94      O      0.405454070000     0.908769500000     0.990314150000    -0.049364   
O94      O      0.905454070000     0.408769500000     0.490314150000    -0.049364   
O94      O      0.905454070000     0.408769500000     0.990314150000    -0.049364   
O94      O      0.905454070000     0.908769500000     0.490314150000    -0.049364   
O94      O      0.905454070000     0.908769500000     0.990314150000    -0.049364   
O95      O      0.328959165000     0.340024320000     0.492801850000    -0.066943   
O95      O      0.328959165000     0.340024320000     0.992801850000    -0.066943   
O95      O      0.328959165000     0.840024320000     0.492801850000    -0.066943   
O95      O      0.328959165000     0.840024320000     0.992801850000    -0.066943   
O95      O      0.828959165000     0.340024320000     0.492801850000    -0.066943   
O95      O      0.828959165000     0.340024320000     0.992801850000    -0.066943   
O95      O      0.828959165000     0.840024320000     0.492801850000    -0.066943   
O95      O      0.828959165000     0.840024320000     0.992801850000    -0.066943   
O96      O      0.261715980000     0.414376900000     0.364318400000    -0.065535   
O96      O      0.261715980000     0.414376900000     0.864318400000    -0.065535   
O96      O      0.261715980000     0.914376900000     0.364318400000    -0.065535   
O96      O      0.261715980000     0.914376900000     0.864318400000    -0.065535   
O96      O      0.761715980000     0.414376900000     0.364318400000    -0.065535   
O96      O      0.761715980000     0.414376900000     0.864318400000    -0.065535   
O96      O      0.761715980000     0.914376900000     0.364318400000    -0.065535   
O96      O      0.761715980000     0.914376900000     0.864318400000    -0.065535   
O97      O      0.442432970000     0.305554330000     0.360830700000    -0.054084   
O97      O      0.442432970000     0.305554330000     0.860830700000    -0.054084   
O97      O      0.442432970000     0.805554330000     0.360830700000    -0.054084   
O97      O      0.442432970000     0.805554330000     0.860830700000    -0.054084   
O97      O      0.942432970000     0.305554330000     0.360830700000    -0.054084   
O97      O      0.942432970000     0.305554330000     0.860830700000    -0.054084   
O97      O      0.942432970000     0.805554330000     0.360830700000    -0.054084   
O97      O      0.942432970000     0.805554330000     0.860830700000    -0.054084   
O98      O      0.406056880000     0.281760800000     0.219540300000     1.32375    
O98      O      0.406056880000     0.281760800000     0.719540300000     1.32375    
O98      O      0.406056880000     0.781760800000     0.219540300000     1.32375    
O98      O      0.406056880000     0.781760800000     0.719540300000     1.32375    
O98      O      0.906056880000     0.281760800000     0.219540300000     1.32375    
O98      O      0.906056880000     0.281760800000     0.719540300000     1.32375    
O98      O      0.906056880000     0.781760800000     0.219540300000     1.32375    
O98      O      0.906056880000     0.781760800000     0.719540300000     1.32375    
O99      O      0.255291400000     0.418102550000     0.219962120000     1.31687    
O99      O      0.255291400000     0.418102550000     0.719962120000     1.31687    
O99      O      0.255291400000     0.918102550000     0.219962120000     1.31687    
O99      O      0.255291400000     0.918102550000     0.719962120000     1.31687    
O99      O      0.755291400000     0.418102550000     0.219962120000     1.31687    
O99      O      0.755291400000     0.418102550000     0.719962120000     1.31687    
O99      O      0.755291400000     0.918102550000     0.219962120000     1.31687    
O99      O      0.755291400000     0.918102550000     0.719962120000     1.31687    
O100     O      0.278932950000     0.290677100000     0.092885525000     0.077559   
O100     O      0.278932950000     0.290677100000     0.592885525000     0.077559   
O100     O      0.278932950000     0.790677100000     0.092885525000     0.077559   
O100     O      0.278932950000     0.790677100000     0.592885525000     0.077559   
O100     O      0.778932950000     0.290677100000     0.092885525000     0.077559   
O100     O      0.778932950000     0.290677100000     0.592885525000     0.077559   
O100     O      0.778932950000     0.790677100000     0.092885525000     0.077559   
O100     O      0.778932950000     0.790677100000     0.592885525000     0.077559   
O101     O      0.355425925000     0.359425900000     0.090411930000     0.078118   
O101     O      0.355425925000     0.359425900000     0.590411930000     0.078118   
O101     O      0.355425925000     0.859425900000     0.090411930000     0.078118   
O101     O      0.355425925000     0.859425900000     0.590411930000     0.078118   
O101     O      0.855425925000     0.359425900000     0.090411930000     0.078118   
O101     O      0.855425925000     0.359425900000     0.590411930000     0.078118   
O101     O      0.855425925000     0.859425900000     0.090411930000     0.078118   
O101     O      0.855425925000     0.859425900000     0.590411930000     0.078118   
O102     O      0.437974000000     0.416376350000     0.210678520000     0.075549   
O102     O      0.437974000000     0.416376350000     0.710678520000     0.075549   
O102     O      0.437974000000     0.916376350000     0.210678520000     0.075549   
O102     O      0.437974000000     0.916376350000     0.710678520000     0.075549   
O102     O      0.937974000000     0.416376350000     0.210678520000     0.075549   
O102     O      0.937974000000     0.416376350000     0.710678520000     0.075549   
O102     O      0.937974000000     0.916376350000     0.210678520000     0.075549   
O102     O      0.937974000000     0.916376350000     0.710678520000     0.075549   
O103     O      0.495140730000     0.387734750000     0.175552575000     0.077444   
O103     O      0.495140730000     0.387734750000     0.675552575000     0.077444   
O103     O      0.495140730000     0.887734750000     0.175552575000     0.077444   
O103     O      0.495140730000     0.887734750000     0.675552575000     0.077444   
O103     O      0.995140730000     0.387734750000     0.175552575000     0.077444   
O103     O      0.995140730000     0.387734750000     0.675552575000     0.077444   
O103     O      0.995140730000     0.887734750000     0.175552575000     0.077444   
O103     O      0.995140730000     0.887734750000     0.675552575000     0.077444   
O104     O      0.427555680000     0.213501470000     0.335532000000     0.078438   
O104     O      0.427555680000     0.213501470000     0.835532000000     0.078438   
O104     O      0.427555680000     0.713501470000     0.335532000000     0.078438   
O104     O      0.427555680000     0.713501470000     0.835532000000     0.078438   
O104     O      0.927555680000     0.213501470000     0.335532000000     0.078438   
O104     O      0.927555680000     0.213501470000     0.835532000000     0.078438   
O104     O      0.927555680000     0.713501470000     0.335532000000     0.078438   
O104     O      0.927555680000     0.713501470000     0.835532000000     0.078438   
O105     O      0.004445730000     0.221026250000     0.304660800000     0.15587    
O105     O      0.004445730000     0.221026250000     0.804660800000     0.15587    
O105     O      0.004445730000     0.721026250000     0.304660800000     0.15587    
O105     O      0.004445730000     0.721026250000     0.804660800000     0.15587    
O105     O      0.504445730000     0.221026250000     0.304660800000     0.15587    
O105     O      0.504445730000     0.221026250000     0.804660800000     0.15587    
O105     O      0.504445730000     0.721026250000     0.304660800000     0.15587    
O105     O      0.504445730000     0.721026250000     0.804660800000     0.15587    
O106     O      0.247218500000     0.006564675000     0.329393270000     0.127155   
O106     O      0.247218500000     0.006564675000     0.829393270000     0.127155   
O106     O      0.247218500000     0.506564675000     0.329393270000     0.127155   
O106     O      0.247218500000     0.506564675000     0.829393270000     0.127155   
O106     O      0.747218500000     0.006564675000     0.329393270000     0.127155   
O106     O      0.747218500000     0.006564675000     0.829393270000     0.127155   
O106     O      0.747218500000     0.506564675000     0.329393270000     0.127155   
O106     O      0.747218500000     0.506564675000     0.829393270000     0.127155   
O107     O      0.158626465000     0.450193165000     0.325066200000     0.103362   
O107     O      0.158626465000     0.450193165000     0.825066200000     0.103362   
O107     O      0.158626465000     0.950193165000     0.325066200000     0.103362   
O107     O      0.158626465000     0.950193165000     0.825066200000     0.103362   
O107     O      0.658626465000     0.450193165000     0.325066200000     0.103362   
O107     O      0.658626465000     0.450193165000     0.825066200000     0.103362   
O107     O      0.658626465000     0.950193165000     0.325066200000     0.103362   
O107     O      0.658626465000     0.950193165000     0.825066200000     0.103362   


