data_sample_6_relaxed_charged

_audit_creation_method RASPA-1.0
_audit_creation_date 2026-2-5
_audit_author_name ''

_cell_length_a    23.3669
_cell_length_b    27.0733
_cell_length_c    31.9157
_cell_angle_alpha 90.2512
_cell_angle_beta  90.2076
_cell_angle_gamma 86.5396
_cell_volume      161227

_symmetry_cell_setting          triclinic
_symmetry_space_group_name_Hall 'P 1'
_symmetry_space_group_name_H-M  'P 1'
_symmetry_Int_Tables_number     1

_symmetry_equiv_pos_as_xyz 'x,y,z'

loop_
_atom_site_label
_atom_site_type_symbol
_atom_site_fract_x
_atom_site_fract_y
_atom_site_fract_z
_atom_site_charge
Zn0      Zn     0.418242870000     0.213191480000     0.169304100000     1.16987    
Zn0      Zn     0.418242870000     0.213191480000     0.669304100000     1.16987    
Zn0      Zn     0.418242870000     0.713191480000     0.169304100000     1.16987    
Zn0      Zn     0.418242870000     0.713191480000     0.669304100000     1.16987    
Zn0      Zn     0.918242870000     0.213191480000     0.169304100000     1.16987    
Zn0      Zn     0.918242870000     0.213191480000     0.669304100000     1.16987    
Zn0      Zn     0.918242870000     0.713191480000     0.169304100000     1.16987    
Zn0      Zn     0.918242870000     0.713191480000     0.669304100000     1.16987    
Zn1      Zn     0.355932650000     0.219672950000     0.179078800000     1.18576    
Zn1      Zn     0.355932650000     0.219672950000     0.679078800000     1.18576    
Zn1      Zn     0.355932650000     0.719672950000     0.179078800000     1.18576    
Zn1      Zn     0.355932650000     0.719672950000     0.679078800000     1.18576    
Zn1      Zn     0.855932650000     0.219672950000     0.179078800000     1.18576    
Zn1      Zn     0.855932650000     0.219672950000     0.679078800000     1.18576    
Zn1      Zn     0.855932650000     0.719672950000     0.179078800000     1.18576    
Zn1      Zn     0.855932650000     0.719672950000     0.679078800000     1.18576    
Zn2      Zn     0.031434835000     0.340949000000     0.029548455000     0.168517   
Zn2      Zn     0.031434835000     0.340949000000     0.529548455000     0.168517   
Zn2      Zn     0.031434835000     0.840949000000     0.029548455000     0.168517   
Zn2      Zn     0.031434835000     0.840949000000     0.529548455000     0.168517   
Zn2      Zn     0.531434835000     0.340949000000     0.029548455000     0.168517   
Zn2      Zn     0.531434835000     0.340949000000     0.529548455000     0.168517   
Zn2      Zn     0.531434835000     0.840949000000     0.029548455000     0.168517   
Zn2      Zn     0.531434835000     0.840949000000     0.529548455000     0.168517   
Zn3      Zn     0.492412715000     0.345212350000     0.065664710000     0.044435   
Zn3      Zn     0.492412715000     0.345212350000     0.565664710000     0.044435   
Zn3      Zn     0.492412715000     0.845212350000     0.065664710000     0.044435   
Zn3      Zn     0.492412715000     0.845212350000     0.565664710000     0.044435   
Zn3      Zn     0.992412715000     0.345212350000     0.065664710000     0.044435   
Zn3      Zn     0.992412715000     0.345212350000     0.565664710000     0.044435   
Zn3      Zn     0.992412715000     0.845212350000     0.065664710000     0.044435   
Zn3      Zn     0.992412715000     0.845212350000     0.565664710000     0.044435   
Zn4      Zn     0.158754050000     0.464911430000     0.156961025000     0.096109   
Zn4      Zn     0.158754050000     0.464911430000     0.656961025000     0.096109   
Zn4      Zn     0.158754050000     0.964911430000     0.156961025000     0.096109   
Zn4      Zn     0.158754050000     0.964911430000     0.656961025000     0.096109   
Zn4      Zn     0.658754050000     0.464911430000     0.156961025000     0.096109   
Zn4      Zn     0.658754050000     0.464911430000     0.656961025000     0.096109   
Zn4      Zn     0.658754050000     0.964911430000     0.156961025000     0.096109   
Zn4      Zn     0.658754050000     0.964911430000     0.656961025000     0.096109   
Zn5      Zn     0.116201365000     0.466710600000     0.191388040000     0.068739   
Zn5      Zn     0.116201365000     0.466710600000     0.691388040000     0.068739   
Zn5      Zn     0.116201365000     0.966710600000     0.191388040000     0.068739   
Zn5      Zn     0.116201365000     0.966710600000     0.691388040000     0.068739   
Zn5      Zn     0.616201365000     0.466710600000     0.191388040000     0.068739   
Zn5      Zn     0.616201365000     0.466710600000     0.691388040000     0.068739   
Zn5      Zn     0.616201365000     0.966710600000     0.191388040000     0.068739   
Zn5      Zn     0.616201365000     0.966710600000     0.691388040000     0.068739   
Zn6      Zn     0.228656590000     0.098159715000     0.310106850000     0.149541   
Zn6      Zn     0.228656590000     0.098159715000     0.810106850000     0.149541   
Zn6      Zn     0.228656590000     0.598159715000     0.310106850000     0.149541   
Zn6      Zn     0.228656590000     0.598159715000     0.810106850000     0.149541   
Zn6      Zn     0.728656590000     0.098159715000     0.310106850000     0.149541   
Zn6      Zn     0.728656590000     0.098159715000     0.810106850000     0.149541   
Zn6      Zn     0.728656590000     0.598159715000     0.310106850000     0.149541   
Zn6      Zn     0.728656590000     0.598159715000     0.810106850000     0.149541   
Zn7      Zn     0.285242500000     0.080070435000     0.293172120000     0.172474   
Zn7      Zn     0.285242500000     0.080070435000     0.793172120000     0.172474   
Zn7      Zn     0.285242500000     0.580070435000     0.293172120000     0.172474   
Zn7      Zn     0.285242500000     0.580070435000     0.793172120000     0.172474   
Zn7      Zn     0.785242500000     0.080070435000     0.293172120000     0.172474   
Zn7      Zn     0.785242500000     0.080070435000     0.793172120000     0.172474   
Zn7      Zn     0.785242500000     0.580070435000     0.293172120000     0.172474   
Zn7      Zn     0.785242500000     0.580070435000     0.793172120000     0.172474   
Zn8      Zn     0.114204385000     0.242986410000     0.427946050000     0.085957   
Zn8      Zn     0.114204385000     0.242986410000     0.927946050000     0.085957   
Zn8      Zn     0.114204385000     0.742986410000     0.427946050000     0.085957   
Zn8      Zn     0.114204385000     0.742986410000     0.927946050000     0.085957   
Zn8      Zn     0.614204385000     0.242986410000     0.427946050000     0.085957   
Zn8      Zn     0.614204385000     0.242986410000     0.927946050000     0.085957   
Zn8      Zn     0.614204385000     0.742986410000     0.427946050000     0.085957   
Zn8      Zn     0.614204385000     0.742986410000     0.927946050000     0.085957   
Zn9      Zn     0.147760585000     0.193372310000     0.417958500000     0.049384   
Zn9      Zn     0.147760585000     0.193372310000     0.917958500000     0.049384   
Zn9      Zn     0.147760585000     0.693372310000     0.417958500000     0.049384   
Zn9      Zn     0.147760585000     0.693372310000     0.917958500000     0.049384   
Zn9      Zn     0.647760585000     0.193372310000     0.417958500000     0.049384   
Zn9      Zn     0.647760585000     0.193372310000     0.917958500000     0.049384   
Zn9      Zn     0.647760585000     0.693372310000     0.417958500000     0.049384   
Zn9      Zn     0.647760585000     0.693372310000     0.917958500000     0.049384   
Zn10     Zn     0.373595200000     0.487562500000     0.411194325000     0.045838   
Zn10     Zn     0.373595200000     0.487562500000     0.911194325000     0.045838   
Zn10     Zn     0.373595200000     0.987562500000     0.411194325000     0.045838   
Zn10     Zn     0.373595200000     0.987562500000     0.911194325000     0.045838   
Zn10     Zn     0.873595200000     0.487562500000     0.411194325000     0.045838   
Zn10     Zn     0.873595200000     0.487562500000     0.911194325000     0.045838   
Zn10     Zn     0.873595200000     0.987562500000     0.411194325000     0.045838   
Zn10     Zn     0.873595200000     0.987562500000     0.911194325000     0.045838   
Zn11     Zn     0.388985550000     0.449263780000     0.442774000000     0.037543   
Zn11     Zn     0.388985550000     0.449263780000     0.942774000000     0.037543   
Zn11     Zn     0.388985550000     0.949263780000     0.442774000000     0.037543   
Zn11     Zn     0.388985550000     0.949263780000     0.942774000000     0.037543   
Zn11     Zn     0.888985550000     0.449263780000     0.442774000000     0.037543   
Zn11     Zn     0.888985550000     0.449263780000     0.942774000000     0.037543   
Zn11     Zn     0.888985550000     0.949263780000     0.442774000000     0.037543   
Zn11     Zn     0.888985550000     0.949263780000     0.942774000000     0.037543   
H12      H      0.367049550000     0.402042450000     0.014617980000     0.076489   
H12      H      0.367049550000     0.402042450000     0.514617980000     0.076489   
H12      H      0.367049550000     0.902042450000     0.014617980000     0.076489   
H12      H      0.367049550000     0.902042450000     0.514617980000     0.076489   
H12      H      0.867049550000     0.402042450000     0.014617980000     0.076489   
H12      H      0.867049550000     0.402042450000     0.514617980000     0.076489   
H12      H      0.867049550000     0.902042450000     0.014617980000     0.076489   
H12      H      0.867049550000     0.902042450000     0.514617980000     0.076489   
H13      H      0.462895150000     0.380306570000     0.481305950000     0.036174   
H13      H      0.462895150000     0.380306570000     0.981305950000     0.036174   
H13      H      0.462895150000     0.880306570000     0.481305950000     0.036174   
H13      H      0.462895150000     0.880306570000     0.981305950000     0.036174   
H13      H      0.962895150000     0.380306570000     0.481305950000     0.036174   
H13      H      0.962895150000     0.380306570000     0.981305950000     0.036174   
H13      H      0.962895150000     0.880306570000     0.481305950000     0.036174   
H13      H      0.962895150000     0.880306570000     0.981305950000     0.036174   
H14      H      0.437234450000     0.413360200000     0.016687335000     0.043883   
H14      H      0.437234450000     0.413360200000     0.516687335000     0.043883   
H14      H      0.437234450000     0.913360200000     0.016687335000     0.043883   
H14      H      0.437234450000     0.913360200000     0.516687335000     0.043883   
H14      H      0.937234450000     0.413360200000     0.016687335000     0.043883   
H14      H      0.937234450000     0.413360200000     0.516687335000     0.043883   
H14      H      0.937234450000     0.913360200000     0.016687335000     0.043883   
H14      H      0.937234450000     0.913360200000     0.516687335000     0.043883   
H15      H      0.454368980000     0.411201985000     0.451985925000     0.036859   
H15      H      0.454368980000     0.411201985000     0.951985925000     0.036859   
H15      H      0.454368980000     0.911201985000     0.451985925000     0.036859   
H15      H      0.454368980000     0.911201985000     0.951985925000     0.036859   
H15      H      0.954368980000     0.411201985000     0.451985925000     0.036859   
H15      H      0.954368980000     0.411201985000     0.951985925000     0.036859   
H15      H      0.954368980000     0.911201985000     0.451985925000     0.036859   
H15      H      0.954368980000     0.911201985000     0.951985925000     0.036859   
H16      H      0.265535750000     0.463850915000     0.253712030000     0.059696   
H16      H      0.265535750000     0.463850915000     0.753712030000     0.059696   
H16      H      0.265535750000     0.963850915000     0.253712030000     0.059696   
H16      H      0.265535750000     0.963850915000     0.753712030000     0.059696   
H16      H      0.765535750000     0.463850915000     0.253712030000     0.059696   
H16      H      0.765535750000     0.463850915000     0.753712030000     0.059696   
H16      H      0.765535750000     0.963850915000     0.253712030000     0.059696   
H16      H      0.765535750000     0.963850915000     0.753712030000     0.059696   
H17      H      0.279655280000     0.012302740000     0.191250565000     0.029282   
H17      H      0.279655280000     0.012302740000     0.691250565000     0.029282   
H17      H      0.279655280000     0.512302740000     0.191250565000     0.029282   
H17      H      0.279655280000     0.512302740000     0.691250565000     0.029282   
H17      H      0.779655280000     0.012302740000     0.191250565000     0.029282   
H17      H      0.779655280000     0.012302740000     0.691250565000     0.029282   
H17      H      0.779655280000     0.512302740000     0.191250565000     0.029282   
H17      H      0.779655280000     0.512302740000     0.691250565000     0.029282   
H18      H      0.198554800000     0.054275820000     0.239184410000     0.025353   
H18      H      0.198554800000     0.054275820000     0.739184410000     0.025353   
H18      H      0.198554800000     0.554275820000     0.239184410000     0.025353   
H18      H      0.198554800000     0.554275820000     0.739184410000     0.025353   
H18      H      0.698554800000     0.054275820000     0.239184410000     0.025353   
H18      H      0.698554800000     0.054275820000     0.739184410000     0.025353   
H18      H      0.698554800000     0.554275820000     0.239184410000     0.025353   
H18      H      0.698554800000     0.554275820000     0.739184410000     0.025353   
H19      H      0.171600490000     0.017701140000     0.233590720000     0.043596   
H19      H      0.171600490000     0.017701140000     0.733590720000     0.043596   
H19      H      0.171600490000     0.517701140000     0.233590720000     0.043596   
H19      H      0.171600490000     0.517701140000     0.733590720000     0.043596   
H19      H      0.671600490000     0.017701140000     0.233590720000     0.043596   
H19      H      0.671600490000     0.017701140000     0.733590720000     0.043596   
H19      H      0.671600490000     0.517701140000     0.233590720000     0.043596   
H19      H      0.671600490000     0.517701140000     0.733590720000     0.043596   
H20      H      0.054974530000     0.093560800000     0.195972635000     0.037058   
H20      H      0.054974530000     0.093560800000     0.695972635000     0.037058   
H20      H      0.054974530000     0.593560800000     0.195972635000     0.037058   
H20      H      0.054974530000     0.593560800000     0.695972635000     0.037058   
H20      H      0.554974530000     0.093560800000     0.195972635000     0.037058   
H20      H      0.554974530000     0.093560800000     0.695972635000     0.037058   
H20      H      0.554974530000     0.593560800000     0.195972635000     0.037058   
H20      H      0.554974530000     0.593560800000     0.695972635000     0.037058   
H21      H      0.009803300000     0.499787350000     0.160091950000     0.047694   
H21      H      0.009803300000     0.499787350000     0.660091950000     0.047694   
H21      H      0.009803300000     0.999787350000     0.160091950000     0.047694   
H21      H      0.009803300000     0.999787350000     0.660091950000     0.047694   
H21      H      0.509803300000     0.499787350000     0.160091950000     0.047694   
H21      H      0.509803300000     0.499787350000     0.660091950000     0.047694   
H21      H      0.509803300000     0.999787350000     0.160091950000     0.047694   
H21      H      0.509803300000     0.999787350000     0.660091950000     0.047694   
H22      H      0.484114400000     0.087042435000     0.120519685000     0.042181   
H22      H      0.484114400000     0.087042435000     0.620519685000     0.042181   
H22      H      0.484114400000     0.587042435000     0.120519685000     0.042181   
H22      H      0.484114400000     0.587042435000     0.620519685000     0.042181   
H22      H      0.984114400000     0.087042435000     0.120519685000     0.042181   
H22      H      0.984114400000     0.087042435000     0.620519685000     0.042181   
H22      H      0.984114400000     0.587042435000     0.120519685000     0.042181   
H22      H      0.984114400000     0.587042435000     0.620519685000     0.042181   
H23      H      0.441415875000     0.086746685000     0.097550740000     0.037445   
H23      H      0.441415875000     0.086746685000     0.597550740000     0.037445   
H23      H      0.441415875000     0.586746685000     0.097550740000     0.037445   
H23      H      0.441415875000     0.586746685000     0.597550740000     0.037445   
H23      H      0.941415875000     0.086746685000     0.097550740000     0.037445   
H23      H      0.941415875000     0.086746685000     0.597550740000     0.037445   
H23      H      0.941415875000     0.586746685000     0.097550740000     0.037445   
H23      H      0.941415875000     0.586746685000     0.597550740000     0.037445   
H24      H      0.392791350000     0.087220610000     0.112994090000     0.053829   
H24      H      0.392791350000     0.087220610000     0.612994090000     0.053829   
H24      H      0.392791350000     0.587220610000     0.112994090000     0.053829   
H24      H      0.392791350000     0.587220610000     0.612994090000     0.053829   
H24      H      0.892791350000     0.087220610000     0.112994090000     0.053829   
H24      H      0.892791350000     0.087220610000     0.612994090000     0.053829   
H24      H      0.892791350000     0.587220610000     0.112994090000     0.053829   
H24      H      0.892791350000     0.587220610000     0.612994090000     0.053829   
H25      H      0.386818300000     0.087920785000     0.151571065000     0.066817   
H25      H      0.386818300000     0.087920785000     0.651571065000     0.066817   
H25      H      0.386818300000     0.587920785000     0.151571065000     0.066817   
H25      H      0.386818300000     0.587920785000     0.651571065000     0.066817   
H25      H      0.886818300000     0.087920785000     0.151571065000     0.066817   
H25      H      0.886818300000     0.087920785000     0.651571065000     0.066817   
H25      H      0.886818300000     0.587920785000     0.151571065000     0.066817   
H25      H      0.886818300000     0.587920785000     0.651571065000     0.066817   
H26      H      0.429307600000     0.088037685000     0.174775290000     0.044885   
H26      H      0.429307600000     0.088037685000     0.674775290000     0.044885   
H26      H      0.429307600000     0.588037685000     0.174775290000     0.044885   
H26      H      0.429307600000     0.588037685000     0.674775290000     0.044885   
H26      H      0.929307600000     0.088037685000     0.174775290000     0.044885   
H26      H      0.929307600000     0.088037685000     0.674775290000     0.044885   
H26      H      0.929307600000     0.588037685000     0.174775290000     0.044885   
H26      H      0.929307600000     0.588037685000     0.674775290000     0.044885   
H27      H      0.482610400000     0.136928485000     0.215369090000     0.159228   
H27      H      0.482610400000     0.136928485000     0.715369090000     0.159228   
H27      H      0.482610400000     0.636928485000     0.215369090000     0.159228   
H27      H      0.482610400000     0.636928485000     0.715369090000     0.159228   
H27      H      0.982610400000     0.136928485000     0.215369090000     0.159228   
H27      H      0.982610400000     0.136928485000     0.715369090000     0.159228   
H27      H      0.982610400000     0.636928485000     0.215369090000     0.159228   
H27      H      0.982610400000     0.636928485000     0.715369090000     0.159228   
H28      H      0.493013920000     0.175447330000     0.233967630000     0.063156   
H28      H      0.493013920000     0.175447330000     0.733967630000     0.063156   
H28      H      0.493013920000     0.675447330000     0.233967630000     0.063156   
H28      H      0.493013920000     0.675447330000     0.733967630000     0.063156   
H28      H      0.993013920000     0.175447330000     0.233967630000     0.063156   
H28      H      0.993013920000     0.175447330000     0.733967630000     0.063156   
H28      H      0.993013920000     0.675447330000     0.233967630000     0.063156   
H28      H      0.993013920000     0.675447330000     0.733967630000     0.063156   
H29      H      0.038023835000     0.195872485000     0.226914940000     0.050794   
H29      H      0.038023835000     0.195872485000     0.726914940000     0.050794   
H29      H      0.038023835000     0.695872485000     0.226914940000     0.050794   
H29      H      0.038023835000     0.695872485000     0.726914940000     0.050794   
H29      H      0.538023835000     0.195872485000     0.226914940000     0.050794   
H29      H      0.538023835000     0.195872485000     0.726914940000     0.050794   
H29      H      0.538023835000     0.695872485000     0.226914940000     0.050794   
H29      H      0.538023835000     0.695872485000     0.726914940000     0.050794   
H30      H      0.072729775000     0.177721175000     0.201006800000     0.065363   
H30      H      0.072729775000     0.177721175000     0.701006800000     0.065363   
H30      H      0.072729775000     0.677721175000     0.201006800000     0.065363   
H30      H      0.072729775000     0.677721175000     0.701006800000     0.065363   
H30      H      0.572729775000     0.177721175000     0.201006800000     0.065363   
H30      H      0.572729775000     0.177721175000     0.701006800000     0.065363   
H30      H      0.572729775000     0.677721175000     0.201006800000     0.065363   
H30      H      0.572729775000     0.677721175000     0.701006800000     0.065363   
H31      H      0.062581315000     0.139363840000     0.182030750000     0.055948   
H31      H      0.062581315000     0.139363840000     0.682030750000     0.055948   
H31      H      0.062581315000     0.639363840000     0.182030750000     0.055948   
H31      H      0.062581315000     0.639363840000     0.682030750000     0.055948   
H31      H      0.562581315000     0.139363840000     0.182030750000     0.055948   
H31      H      0.562581315000     0.139363840000     0.682030750000     0.055948   
H31      H      0.562581315000     0.639363840000     0.182030750000     0.055948   
H31      H      0.562581315000     0.639363840000     0.682030750000     0.055948   
H32      H      0.228336550000     0.387237450000     0.362318515000     0.07102    
H32      H      0.228336550000     0.387237450000     0.862318515000     0.07102    
H32      H      0.228336550000     0.887237450000     0.362318515000     0.07102    
H32      H      0.228336550000     0.887237450000     0.862318515000     0.07102    
H32      H      0.728336550000     0.387237450000     0.362318515000     0.07102    
H32      H      0.728336550000     0.387237450000     0.862318515000     0.07102    
H32      H      0.728336550000     0.887237450000     0.362318515000     0.07102    
H32      H      0.728336550000     0.887237450000     0.862318515000     0.07102    
H33      H      0.201087015000     0.349574120000     0.361788780000     0.079912   
H33      H      0.201087015000     0.349574120000     0.861788780000     0.079912   
H33      H      0.201087015000     0.849574120000     0.361788780000     0.079912   
H33      H      0.201087015000     0.849574120000     0.861788780000     0.079912   
H33      H      0.701087015000     0.349574120000     0.361788780000     0.079912   
H33      H      0.701087015000     0.349574120000     0.861788780000     0.079912   
H33      H      0.701087015000     0.849574120000     0.361788780000     0.079912   
H33      H      0.701087015000     0.849574120000     0.861788780000     0.079912   
H34      H      0.205731450000     0.319966850000     0.390235850000     0.06521    
H34      H      0.205731450000     0.319966850000     0.890235850000     0.06521    
H34      H      0.205731450000     0.819966850000     0.390235850000     0.06521    
H34      H      0.205731450000     0.819966850000     0.890235850000     0.06521    
H34      H      0.705731450000     0.319966850000     0.390235850000     0.06521    
H34      H      0.705731450000     0.319966850000     0.890235850000     0.06521    
H34      H      0.705731450000     0.819966850000     0.390235850000     0.06521    
H34      H      0.705731450000     0.819966850000     0.890235850000     0.06521    
H35      H      0.250075300000     0.293169600000     0.458358525000     0.089935   
H35      H      0.250075300000     0.293169600000     0.958358525000     0.089935   
H35      H      0.250075300000     0.793169600000     0.458358525000     0.089935   
H35      H      0.250075300000     0.793169600000     0.958358525000     0.089935   
H35      H      0.750075300000     0.293169600000     0.458358525000     0.089935   
H35      H      0.750075300000     0.293169600000     0.958358525000     0.089935   
H35      H      0.750075300000     0.793169600000     0.458358525000     0.089935   
H35      H      0.750075300000     0.793169600000     0.958358525000     0.089935   
H36      H      0.279869080000     0.300044550000     0.487876950000     0.035334   
H36      H      0.279869080000     0.300044550000     0.987876950000     0.035334   
H36      H      0.279869080000     0.800044550000     0.487876950000     0.035334   
H36      H      0.279869080000     0.800044550000     0.987876950000     0.035334   
H36      H      0.779869080000     0.300044550000     0.487876950000     0.035334   
H36      H      0.779869080000     0.300044550000     0.987876950000     0.035334   
H36      H      0.779869080000     0.800044550000     0.487876950000     0.035334   
H36      H      0.779869080000     0.800044550000     0.987876950000     0.035334   
H37      H      0.342985270000     0.354542165000     0.011518300000     0.06256    
H37      H      0.342985270000     0.354542165000     0.511518300000     0.06256    
H37      H      0.342985270000     0.854542165000     0.011518300000     0.06256    
H37      H      0.342985270000     0.854542165000     0.511518300000     0.06256    
H37      H      0.842985270000     0.354542165000     0.011518300000     0.06256    
H37      H      0.842985270000     0.354542165000     0.511518300000     0.06256    
H37      H      0.842985270000     0.854542165000     0.011518300000     0.06256    
H37      H      0.842985270000     0.854542165000     0.511518300000     0.06256    
H38      H      0.260024350000     0.395528100000     0.391321400000     0.085237   
H38      H      0.260024350000     0.395528100000     0.891321400000     0.085237   
H38      H      0.260024350000     0.895528100000     0.391321400000     0.085237   
H38      H      0.260024350000     0.895528100000     0.891321400000     0.085237   
H38      H      0.760024350000     0.395528100000     0.391321400000     0.085237   
H38      H      0.760024350000     0.395528100000     0.891321400000     0.085237   
H38      H      0.760024350000     0.895528100000     0.391321400000     0.085237   
H38      H      0.760024350000     0.895528100000     0.891321400000     0.085237   
H39      H      0.028797500000     0.089270570000     0.391141625000     0.07257    
H39      H      0.028797500000     0.089270570000     0.891141625000     0.07257    
H39      H      0.028797500000     0.589270570000     0.391141625000     0.07257    
H39      H      0.028797500000     0.589270570000     0.891141625000     0.07257    
H39      H      0.528797500000     0.089270570000     0.391141625000     0.07257    
H39      H      0.528797500000     0.089270570000     0.891141625000     0.07257    
H39      H      0.528797500000     0.589270570000     0.391141625000     0.07257    
H39      H      0.528797500000     0.589270570000     0.891141625000     0.07257    
H40      H      0.035988180000     0.072935075000     0.452228150000     0.069167   
H40      H      0.035988180000     0.072935075000     0.952228150000     0.069167   
H40      H      0.035988180000     0.572935075000     0.452228150000     0.069167   
H40      H      0.035988180000     0.572935075000     0.952228150000     0.069167   
H40      H      0.535988180000     0.072935075000     0.452228150000     0.069167   
H40      H      0.535988180000     0.072935075000     0.952228150000     0.069167   
H40      H      0.535988180000     0.572935075000     0.452228150000     0.069167   
H40      H      0.535988180000     0.572935075000     0.952228150000     0.069167   
H41      H      0.011065385000     0.050317960000     0.416859180000     0.069126   
H41      H      0.011065385000     0.050317960000     0.916859180000     0.069126   
H41      H      0.011065385000     0.550317960000     0.416859180000     0.069126   
H41      H      0.011065385000     0.550317960000     0.916859180000     0.069126   
H41      H      0.511065385000     0.050317960000     0.416859180000     0.069126   
H41      H      0.511065385000     0.050317960000     0.916859180000     0.069126   
H41      H      0.511065385000     0.550317960000     0.416859180000     0.069126   
H41      H      0.511065385000     0.550317960000     0.916859180000     0.069126   
H42      H      0.459121675000     0.137740375000     0.354613185000     0.025444   
H42      H      0.459121675000     0.137740375000     0.854613185000     0.025444   
H42      H      0.459121675000     0.637740375000     0.354613185000     0.025444   
H42      H      0.459121675000     0.637740375000     0.854613185000     0.025444   
H42      H      0.959121675000     0.137740375000     0.354613185000     0.025444   
H42      H      0.959121675000     0.137740375000     0.854613185000     0.025444   
H42      H      0.959121675000     0.637740375000     0.354613185000     0.025444   
H42      H      0.959121675000     0.637740375000     0.854613185000     0.025444   
H43      H      0.448458820000     0.161390750000     0.373685480000     0.042607   
H43      H      0.448458820000     0.161390750000     0.873685480000     0.042607   
H43      H      0.448458820000     0.661390750000     0.373685480000     0.042607   
H43      H      0.448458820000     0.661390750000     0.873685480000     0.042607   
H43      H      0.948458820000     0.161390750000     0.373685480000     0.042607   
H43      H      0.948458820000     0.161390750000     0.873685480000     0.042607   
H43      H      0.948458820000     0.661390750000     0.373685480000     0.042607   
H43      H      0.948458820000     0.661390750000     0.873685480000     0.042607   
H44      H      0.479283600000     0.164977000000     0.357277275000     0.069537   
H44      H      0.479283600000     0.164977000000     0.857277275000     0.069537   
H44      H      0.479283600000     0.664977000000     0.357277275000     0.069537   
H44      H      0.479283600000     0.664977000000     0.857277275000     0.069537   
H44      H      0.979283600000     0.164977000000     0.357277275000     0.069537   
H44      H      0.979283600000     0.164977000000     0.857277275000     0.069537   
H44      H      0.979283600000     0.664977000000     0.357277275000     0.069537   
H44      H      0.979283600000     0.664977000000     0.857277275000     0.069537   
H45      H      0.494476080000     0.152473030000     0.393141570000     0.05975    
H45      H      0.494476080000     0.152473030000     0.893141570000     0.05975    
H45      H      0.494476080000     0.652473030000     0.393141570000     0.05975    
H45      H      0.494476080000     0.652473030000     0.893141570000     0.05975    
H45      H      0.994476080000     0.152473030000     0.393141570000     0.05975    
H45      H      0.994476080000     0.152473030000     0.893141570000     0.05975    
H45      H      0.994476080000     0.652473030000     0.393141570000     0.05975    
H45      H      0.994476080000     0.652473030000     0.893141570000     0.05975    
H46      H      0.005102900000     0.128937170000     0.374192100000     0.094288   
H46      H      0.005102900000     0.128937170000     0.874192100000     0.094288   
H46      H      0.005102900000     0.628937170000     0.374192100000     0.094288   
H46      H      0.005102900000     0.628937170000     0.874192100000     0.094288   
H46      H      0.505102900000     0.128937170000     0.374192100000     0.094288   
H46      H      0.505102900000     0.128937170000     0.874192100000     0.094288   
H46      H      0.505102900000     0.628937170000     0.374192100000     0.094288   
H46      H      0.505102900000     0.628937170000     0.874192100000     0.094288   
H47      H      0.462505650000     0.105216450000     0.383634180000     0.094918   
H47      H      0.462505650000     0.105216450000     0.883634180000     0.094918   
H47      H      0.462505650000     0.605216450000     0.383634180000     0.094918   
H47      H      0.462505650000     0.605216450000     0.883634180000     0.094918   
H47      H      0.962505650000     0.105216450000     0.383634180000     0.094918   
H47      H      0.962505650000     0.105216450000     0.883634180000     0.094918   
H47      H      0.962505650000     0.605216450000     0.383634180000     0.094918   
H47      H      0.962505650000     0.605216450000     0.883634180000     0.094918   
H48      H      0.451417900000     0.128710925000     0.402527850000     0.106872   
H48      H      0.451417900000     0.128710925000     0.902527850000     0.106872   
H48      H      0.451417900000     0.628710925000     0.402527850000     0.106872   
H48      H      0.451417900000     0.628710925000     0.902527850000     0.106872   
H48      H      0.951417900000     0.128710925000     0.402527850000     0.106872   
H48      H      0.951417900000     0.128710925000     0.902527850000     0.106872   
H48      H      0.951417900000     0.628710925000     0.402527850000     0.106872   
H48      H      0.951417900000     0.628710925000     0.902527850000     0.106872   
H49      H      0.463543100000     0.127205985000     0.001595380000     0.129004   
H49      H      0.463543100000     0.127205985000     0.501595380000     0.129004   
H49      H      0.463543100000     0.627205985000     0.001595380000     0.129004   
H49      H      0.463543100000     0.627205985000     0.501595380000     0.129004   
H49      H      0.963543100000     0.127205985000     0.001595380000     0.129004   
H49      H      0.963543100000     0.127205985000     0.501595380000     0.129004   
H49      H      0.963543100000     0.627205985000     0.001595380000     0.129004   
H49      H      0.963543100000     0.627205985000     0.501595380000     0.129004   
H50      H      0.477314500000     0.096464940000     0.009015975000     0.167593   
H50      H      0.477314500000     0.096464940000     0.509015975000     0.167593   
H50      H      0.477314500000     0.596464940000     0.009015975000     0.167593   
H50      H      0.477314500000     0.596464940000     0.509015975000     0.167593   
H50      H      0.977314500000     0.096464940000     0.009015975000     0.167593   
H50      H      0.977314500000     0.096464940000     0.509015975000     0.167593   
H50      H      0.977314500000     0.596464940000     0.009015975000     0.167593   
H50      H      0.977314500000     0.596464940000     0.509015975000     0.167593   
H51      H      0.497830800000     0.122920490000     0.014582100000     0.023412   
H51      H      0.497830800000     0.122920490000     0.514582100000     0.023412   
H51      H      0.497830800000     0.622920490000     0.014582100000     0.023412   
H51      H      0.497830800000     0.622920490000     0.514582100000     0.023412   
H51      H      0.997830800000     0.122920490000     0.014582100000     0.023412   
H51      H      0.997830800000     0.122920490000     0.514582100000     0.023412   
H51      H      0.997830800000     0.622920490000     0.014582100000     0.023412   
H51      H      0.997830800000     0.622920490000     0.514582100000     0.023412   
H52      H      0.018034835000     0.099578110000     0.483972820000     0.100276   
H52      H      0.018034835000     0.099578110000     0.983972820000     0.100276   
H52      H      0.018034835000     0.599578110000     0.483972820000     0.100276   
H52      H      0.018034835000     0.599578110000     0.983972820000     0.100276   
H52      H      0.518034835000     0.099578110000     0.483972820000     0.100276   
H52      H      0.518034835000     0.099578110000     0.983972820000     0.100276   
H52      H      0.518034835000     0.599578110000     0.483972820000     0.100276   
H52      H      0.518034835000     0.599578110000     0.983972820000     0.100276   
H53      H      0.004315480000     0.130152050000     0.476615070000     0.068742   
H53      H      0.004315480000     0.130152050000     0.976615070000     0.068742   
H53      H      0.004315480000     0.630152050000     0.476615070000     0.068742   
H53      H      0.004315480000     0.630152050000     0.976615070000     0.068742   
H53      H      0.504315480000     0.130152050000     0.476615070000     0.068742   
H53      H      0.504315480000     0.130152050000     0.976615070000     0.068742   
H53      H      0.504315480000     0.630152050000     0.476615070000     0.068742   
H53      H      0.504315480000     0.630152050000     0.976615070000     0.068742   
H54      H      0.458633300000     0.112350300000     0.463747550000     0.056372   
H54      H      0.458633300000     0.112350300000     0.963747550000     0.056372   
H54      H      0.458633300000     0.612350300000     0.463747550000     0.056372   
H54      H      0.458633300000     0.612350300000     0.963747550000     0.056372   
H54      H      0.958633300000     0.112350300000     0.463747550000     0.056372   
H54      H      0.958633300000     0.112350300000     0.963747550000     0.056372   
H54      H      0.958633300000     0.612350300000     0.463747550000     0.056372   
H54      H      0.958633300000     0.612350300000     0.963747550000     0.056372   
H55      H      0.472788780000     0.081856830000     0.471024720000     0.178626   
H55      H      0.472788780000     0.081856830000     0.971024720000     0.178626   
H55      H      0.472788780000     0.581856830000     0.471024720000     0.178626   
H55      H      0.472788780000     0.581856830000     0.971024720000     0.178626   
H55      H      0.972788780000     0.081856830000     0.471024720000     0.178626   
H55      H      0.972788780000     0.081856830000     0.971024720000     0.178626   
H55      H      0.972788780000     0.581856830000     0.471024720000     0.178626   
H55      H      0.972788780000     0.581856830000     0.971024720000     0.178626   
H56      H      0.432182150000     0.315637530000     0.099555275000     0.055046   
H56      H      0.432182150000     0.315637530000     0.599555275000     0.055046   
H56      H      0.432182150000     0.815637530000     0.099555275000     0.055046   
H56      H      0.432182150000     0.815637530000     0.599555275000     0.055046   
H56      H      0.932182150000     0.315637530000     0.099555275000     0.055046   
H56      H      0.932182150000     0.315637530000     0.599555275000     0.055046   
H56      H      0.932182150000     0.815637530000     0.099555275000     0.055046   
H56      H      0.932182150000     0.815637530000     0.599555275000     0.055046   
H57      H      0.474108800000     0.243303050000     0.127774750000     0.038538   
H57      H      0.474108800000     0.243303050000     0.627774750000     0.038538   
H57      H      0.474108800000     0.743303050000     0.127774750000     0.038538   
H57      H      0.474108800000     0.743303050000     0.627774750000     0.038538   
H57      H      0.974108800000     0.243303050000     0.127774750000     0.038538   
H57      H      0.974108800000     0.243303050000     0.627774750000     0.038538   
H57      H      0.974108800000     0.743303050000     0.127774750000     0.038538   
H57      H      0.974108800000     0.743303050000     0.627774750000     0.038538   
H58      H      0.114538425000     0.278220415000     0.487700730000     0.040288   
H58      H      0.114538425000     0.278220415000     0.987700730000     0.040288   
H58      H      0.114538425000     0.778220415000     0.487700730000     0.040288   
H58      H      0.114538425000     0.778220415000     0.987700730000     0.040288   
H58      H      0.614538425000     0.278220415000     0.487700730000     0.040288   
H58      H      0.614538425000     0.278220415000     0.987700730000     0.040288   
H58      H      0.614538425000     0.778220415000     0.487700730000     0.040288   
H58      H      0.614538425000     0.778220415000     0.987700730000     0.040288   
H59      H      0.022770825000     0.282268800000     0.482729100000     0.034434   
H59      H      0.022770825000     0.282268800000     0.982729100000     0.034434   
H59      H      0.022770825000     0.782268800000     0.482729100000     0.034434   
H59      H      0.022770825000     0.782268800000     0.982729100000     0.034434   
H59      H      0.522770825000     0.282268800000     0.482729100000     0.034434   
H59      H      0.522770825000     0.282268800000     0.982729100000     0.034434   
H59      H      0.522770825000     0.782268800000     0.482729100000     0.034434   
H59      H      0.522770825000     0.782268800000     0.982729100000     0.034434   
H60      H      0.129694415000     0.343130750000     0.103157720000     0.053076   
H60      H      0.129694415000     0.343130750000     0.603157720000     0.053076   
H60      H      0.129694415000     0.843130750000     0.103157720000     0.053076   
H60      H      0.129694415000     0.843130750000     0.603157720000     0.053076   
H60      H      0.629694415000     0.343130750000     0.103157720000     0.053076   
H60      H      0.629694415000     0.343130750000     0.603157720000     0.053076   
H60      H      0.629694415000     0.843130750000     0.103157720000     0.053076   
H60      H      0.629694415000     0.843130750000     0.603157720000     0.053076   
H61      H      0.092275800000     0.430646950000     0.117978895000     0.058273   
H61      H      0.092275800000     0.430646950000     0.617978895000     0.058273   
H61      H      0.092275800000     0.930646950000     0.117978895000     0.058273   
H61      H      0.092275800000     0.930646950000     0.617978895000     0.058273   
H61      H      0.592275800000     0.430646950000     0.117978895000     0.058273   
H61      H      0.592275800000     0.430646950000     0.617978895000     0.058273   
H61      H      0.592275800000     0.930646950000     0.117978895000     0.058273   
H61      H      0.592275800000     0.930646950000     0.617978895000     0.058273   
H62      H      0.102505175000     0.381157815000     0.141124850000     0.048231   
H62      H      0.102505175000     0.381157815000     0.641124850000     0.048231   
H62      H      0.102505175000     0.881157815000     0.141124850000     0.048231   
H62      H      0.102505175000     0.881157815000     0.641124850000     0.048231   
H62      H      0.602505175000     0.381157815000     0.141124850000     0.048231   
H62      H      0.602505175000     0.381157815000     0.641124850000     0.048231   
H62      H      0.602505175000     0.881157815000     0.141124850000     0.048231   
H62      H      0.602505175000     0.881157815000     0.641124850000     0.048231   
H63      H      0.042522495000     0.423186480000     0.104537800000     0.041109   
H63      H      0.042522495000     0.423186480000     0.604537800000     0.041109   
H63      H      0.042522495000     0.923186480000     0.104537800000     0.041109   
H63      H      0.042522495000     0.923186480000     0.604537800000     0.041109   
H63      H      0.542522495000     0.423186480000     0.104537800000     0.041109   
H63      H      0.542522495000     0.423186480000     0.604537800000     0.041109   
H63      H      0.542522495000     0.923186480000     0.104537800000     0.041109   
H63      H      0.542522495000     0.923186480000     0.604537800000     0.041109   
H64      H      0.274795980000     0.382369200000     0.183951630000     0.037847   
H64      H      0.274795980000     0.382369200000     0.683951630000     0.037847   
H64      H      0.274795980000     0.882369200000     0.183951630000     0.037847   
H64      H      0.274795980000     0.882369200000     0.683951630000     0.037847   
H64      H      0.774795980000     0.382369200000     0.183951630000     0.037847   
H64      H      0.774795980000     0.382369200000     0.683951630000     0.037847   
H64      H      0.774795980000     0.882369200000     0.183951630000     0.037847   
H64      H      0.774795980000     0.882369200000     0.683951630000     0.037847   
H65      H      0.168956770000     0.353844525000     0.136913730000     0.047544   
H65      H      0.168956770000     0.353844525000     0.636913730000     0.047544   
H65      H      0.168956770000     0.853844525000     0.136913730000     0.047544   
H65      H      0.168956770000     0.853844525000     0.636913730000     0.047544   
H65      H      0.668956770000     0.353844525000     0.136913730000     0.047544   
H65      H      0.668956770000     0.353844525000     0.636913730000     0.047544   
H65      H      0.668956770000     0.853844525000     0.136913730000     0.047544   
H65      H      0.668956770000     0.853844525000     0.636913730000     0.047544   
H66      H      0.221635210000     0.287480300000     0.190246550000     0.078292   
H66      H      0.221635210000     0.287480300000     0.690246550000     0.078292   
H66      H      0.221635210000     0.787480300000     0.190246550000     0.078292   
H66      H      0.221635210000     0.787480300000     0.690246550000     0.078292   
H66      H      0.721635210000     0.287480300000     0.190246550000     0.078292   
H66      H      0.721635210000     0.287480300000     0.690246550000     0.078292   
H66      H      0.721635210000     0.787480300000     0.190246550000     0.078292   
H66      H      0.721635210000     0.787480300000     0.690246550000     0.078292   
H67      H      0.210663525000     0.244097890000     0.183260620000     0.028992   
H67      H      0.210663525000     0.244097890000     0.683260620000     0.028992   
H67      H      0.210663525000     0.744097890000     0.183260620000     0.028992   
H67      H      0.210663525000     0.744097890000     0.683260620000     0.028992   
H67      H      0.710663525000     0.244097890000     0.183260620000     0.028992   
H67      H      0.710663525000     0.244097890000     0.683260620000     0.028992   
H67      H      0.710663525000     0.744097890000     0.183260620000     0.028992   
H67      H      0.710663525000     0.744097890000     0.683260620000     0.028992   
H68      H      0.231738250000     0.221781750000     0.152459220000     0.157209   
H68      H      0.231738250000     0.221781750000     0.652459220000     0.157209   
H68      H      0.231738250000     0.721781750000     0.152459220000     0.157209   
H68      H      0.231738250000     0.721781750000     0.652459220000     0.157209   
H68      H      0.731738250000     0.221781750000     0.152459220000     0.157209   
H68      H      0.731738250000     0.221781750000     0.652459220000     0.157209   
H68      H      0.731738250000     0.721781750000     0.152459220000     0.157209   
H68      H      0.731738250000     0.721781750000     0.652459220000     0.157209   
H69      H      0.263859550000     0.242943300000     0.128495680000     0.150784   
H69      H      0.263859550000     0.242943300000     0.628495680000     0.150784   
H69      H      0.263859550000     0.742943300000     0.128495680000     0.150784   
H69      H      0.263859550000     0.742943300000     0.628495680000     0.150784   
H69      H      0.763859550000     0.242943300000     0.128495680000     0.150784   
H69      H      0.763859550000     0.242943300000     0.628495680000     0.150784   
H69      H      0.763859550000     0.742943300000     0.128495680000     0.150784   
H69      H      0.763859550000     0.742943300000     0.628495680000     0.150784   
H70      H      0.274890480000     0.286388850000     0.135165450000     0.056722   
H70      H      0.274890480000     0.286388850000     0.635165450000     0.056722   
H70      H      0.274890480000     0.786388850000     0.135165450000     0.056722   
H70      H      0.274890480000     0.786388850000     0.635165450000     0.056722   
H70      H      0.774890480000     0.286388850000     0.135165450000     0.056722   
H70      H      0.774890480000     0.286388850000     0.635165450000     0.056722   
H70      H      0.774890480000     0.786388850000     0.135165450000     0.056722   
H70      H      0.774890480000     0.786388850000     0.635165450000     0.056722   
H71      H      0.342171520000     0.335404850000     0.161168750000     0.031982   
H71      H      0.342171520000     0.335404850000     0.661168750000     0.031982   
H71      H      0.342171520000     0.835404850000     0.161168750000     0.031982   
H71      H      0.342171520000     0.835404850000     0.661168750000     0.031982   
H71      H      0.842171520000     0.335404850000     0.161168750000     0.031982   
H71      H      0.842171520000     0.335404850000     0.661168750000     0.031982   
H71      H      0.842171520000     0.835404850000     0.161168750000     0.031982   
H71      H      0.842171520000     0.835404850000     0.661168750000     0.031982   
H72      H      0.390110250000     0.344236285000     0.174577280000     0.041943   
H72      H      0.390110250000     0.344236285000     0.674577280000     0.041943   
H72      H      0.390110250000     0.844236285000     0.174577280000     0.041943   
H72      H      0.390110250000     0.844236285000     0.674577280000     0.041943   
H72      H      0.890110250000     0.344236285000     0.174577280000     0.041943   
H72      H      0.890110250000     0.344236285000     0.674577280000     0.041943   
H72      H      0.890110250000     0.844236285000     0.174577280000     0.041943   
H72      H      0.890110250000     0.844236285000     0.674577280000     0.041943   
H73      H      0.395313770000     0.364072650000     0.209337400000     0.031443   
H73      H      0.395313770000     0.364072650000     0.709337400000     0.031443   
H73      H      0.395313770000     0.864072650000     0.209337400000     0.031443   
H73      H      0.395313770000     0.864072650000     0.709337400000     0.031443   
H73      H      0.895313770000     0.364072650000     0.209337400000     0.031443   
H73      H      0.895313770000     0.364072650000     0.709337400000     0.031443   
H73      H      0.895313770000     0.864072650000     0.209337400000     0.031443   
H73      H      0.895313770000     0.864072650000     0.709337400000     0.031443   
H74      H      0.352305980000     0.374990500000     0.230849890000     0.047551   
H74      H      0.352305980000     0.374990500000     0.730849890000     0.047551   
H74      H      0.352305980000     0.874990500000     0.230849890000     0.047551   
H74      H      0.352305980000     0.874990500000     0.730849890000     0.047551   
H74      H      0.852305980000     0.374990500000     0.230849890000     0.047551   
H74      H      0.852305980000     0.374990500000     0.730849890000     0.047551   
H74      H      0.852305980000     0.874990500000     0.230849890000     0.047551   
H74      H      0.852305980000     0.874990500000     0.730849890000     0.047551   
H75      H      0.304171950000     0.366037650000     0.217849500000     0.04846    
H75      H      0.304171950000     0.366037650000     0.717849500000     0.04846    
H75      H      0.304171950000     0.866037650000     0.217849500000     0.04846    
H75      H      0.304171950000     0.866037650000     0.717849500000     0.04846    
H75      H      0.804171950000     0.366037650000     0.217849500000     0.04846    
H75      H      0.804171950000     0.366037650000     0.717849500000     0.04846    
H75      H      0.804171950000     0.866037650000     0.217849500000     0.04846    
H75      H      0.804171950000     0.866037650000     0.717849500000     0.04846    
H76      H      0.168392970000     0.139925840000     0.388797100000     0.025301   
H76      H      0.168392970000     0.139925840000     0.888797100000     0.025301   
H76      H      0.168392970000     0.639925840000     0.388797100000     0.025301   
H76      H      0.168392970000     0.639925840000     0.888797100000     0.025301   
H76      H      0.668392970000     0.139925840000     0.388797100000     0.025301   
H76      H      0.668392970000     0.139925840000     0.888797100000     0.025301   
H76      H      0.668392970000     0.639925840000     0.388797100000     0.025301   
H76      H      0.668392970000     0.639925840000     0.888797100000     0.025301   
H77      H      0.202418180000     0.152429835000     0.325230700000     0.083061   
H77      H      0.202418180000     0.152429835000     0.825230700000     0.083061   
H77      H      0.202418180000     0.652429835000     0.325230700000     0.083061   
H77      H      0.202418180000     0.652429835000     0.825230700000     0.083061   
H77      H      0.702418180000     0.152429835000     0.325230700000     0.083061   
H77      H      0.702418180000     0.152429835000     0.825230700000     0.083061   
H77      H      0.702418180000     0.652429835000     0.325230700000     0.083061   
H77      H      0.702418180000     0.652429835000     0.825230700000     0.083061   
H78      H      0.144023580000     0.216955500000     0.339936650000     0.094305   
H78      H      0.144023580000     0.216955500000     0.839936650000     0.094305   
H78      H      0.144023580000     0.716955500000     0.339936650000     0.094305   
H78      H      0.144023580000     0.716955500000     0.839936650000     0.094305   
H78      H      0.644023580000     0.216955500000     0.339936650000     0.094305   
H78      H      0.644023580000     0.216955500000     0.839936650000     0.094305   
H78      H      0.644023580000     0.716955500000     0.339936650000     0.094305   
H78      H      0.644023580000     0.716955500000     0.839936650000     0.094305   
H79      H      0.221690280000     0.168371975000     0.412678000000     0.151326   
H79      H      0.221690280000     0.168371975000     0.912678000000     0.151326   
H79      H      0.221690280000     0.668371975000     0.412678000000     0.151326   
H79      H      0.221690280000     0.668371975000     0.912678000000     0.151326   
H79      H      0.721690280000     0.168371975000     0.412678000000     0.151326   
H79      H      0.721690280000     0.168371975000     0.912678000000     0.151326   
H79      H      0.721690280000     0.668371975000     0.412678000000     0.151326   
H79      H      0.721690280000     0.668371975000     0.912678000000     0.151326   
H80      H      0.265621950000     0.176538510000     0.222127125000    -0.070281   
H80      H      0.265621950000     0.176538510000     0.722127125000    -0.070281   
H80      H      0.265621950000     0.676538510000     0.222127125000    -0.070281   
H80      H      0.265621950000     0.676538510000     0.722127125000    -0.070281   
H80      H      0.765621950000     0.176538510000     0.222127125000    -0.070281   
H80      H      0.765621950000     0.176538510000     0.722127125000    -0.070281   
H80      H      0.765621950000     0.676538510000     0.222127125000    -0.070281   
H80      H      0.765621950000     0.676538510000     0.722127125000    -0.070281   
H81      H      0.217397570000     0.185785050000     0.207521600000     0.307328   
H81      H      0.217397570000     0.185785050000     0.707521600000     0.307328   
H81      H      0.217397570000     0.685785050000     0.207521600000     0.307328   
H81      H      0.217397570000     0.685785050000     0.707521600000     0.307328   
H81      H      0.717397570000     0.185785050000     0.207521600000     0.307328   
H81      H      0.717397570000     0.185785050000     0.707521600000     0.307328   
H81      H      0.717397570000     0.685785050000     0.207521600000     0.307328   
H81      H      0.717397570000     0.685785050000     0.707521600000     0.307328   
H82      H      0.204785215000     0.169793350000     0.172421875000    -0.053703   
H82      H      0.204785215000     0.169793350000     0.672421875000    -0.053703   
H82      H      0.204785215000     0.669793350000     0.172421875000    -0.053703   
H82      H      0.204785215000     0.669793350000     0.672421875000    -0.053703   
H82      H      0.704785215000     0.169793350000     0.172421875000    -0.053703   
H82      H      0.704785215000     0.169793350000     0.672421875000    -0.053703   
H82      H      0.704785215000     0.669793350000     0.172421875000    -0.053703   
H82      H      0.704785215000     0.669793350000     0.672421875000    -0.053703   
H83      H      0.240240065000     0.143015650000     0.152602600000    -0.14739    
H83      H      0.240240065000     0.143015650000     0.652602600000    -0.14739    
H83      H      0.240240065000     0.643015650000     0.152602600000    -0.14739    
H83      H      0.240240065000     0.643015650000     0.652602600000    -0.14739    
H83      H      0.740240065000     0.143015650000     0.152602600000    -0.14739    
H83      H      0.740240065000     0.143015650000     0.652602600000    -0.14739    
H83      H      0.740240065000     0.643015650000     0.152602600000    -0.14739    
H83      H      0.740240065000     0.643015650000     0.652602600000    -0.14739    
H84      H      0.288637965000     0.133689565000     0.166902660000     0.044022   
H84      H      0.288637965000     0.133689565000     0.666902660000     0.044022   
H84      H      0.288637965000     0.633689565000     0.166902660000     0.044022   
H84      H      0.288637965000     0.633689565000     0.666902660000     0.044022   
H84      H      0.788637965000     0.133689565000     0.166902660000     0.044022   
H84      H      0.788637965000     0.133689565000     0.666902660000     0.044022   
H84      H      0.788637965000     0.633689565000     0.166902660000     0.044022   
H84      H      0.788637965000     0.633689565000     0.666902660000     0.044022   
H85      H      0.344313025000     0.160186740000     0.222412915000     0.127679   
H85      H      0.344313025000     0.160186740000     0.722412915000     0.127679   
H85      H      0.344313025000     0.660186740000     0.222412915000     0.127679   
H85      H      0.344313025000     0.660186740000     0.722412915000     0.127679   
H85      H      0.844313025000     0.160186740000     0.222412915000     0.127679   
H85      H      0.844313025000     0.160186740000     0.722412915000     0.127679   
H85      H      0.844313025000     0.660186740000     0.222412915000     0.127679   
H85      H      0.844313025000     0.660186740000     0.722412915000     0.127679   
H86      H      0.293097315000     0.129315330000     0.235027240000    -0.000346   
H86      H      0.293097315000     0.129315330000     0.735027240000    -0.000346   
H86      H      0.293097315000     0.629315330000     0.235027240000    -0.000346   
H86      H      0.293097315000     0.629315330000     0.735027240000    -0.000346   
H86      H      0.793097315000     0.129315330000     0.235027240000    -0.000346   
H86      H      0.793097315000     0.129315330000     0.735027240000    -0.000346   
H86      H      0.793097315000     0.629315330000     0.235027240000    -0.000346   
H86      H      0.793097315000     0.629315330000     0.735027240000    -0.000346   
H87      H      0.339304650000     0.157070710000     0.258187025000     0.36393    
H87      H      0.339304650000     0.157070710000     0.758187025000     0.36393    
H87      H      0.339304650000     0.657070710000     0.258187025000     0.36393    
H87      H      0.339304650000     0.657070710000     0.758187025000     0.36393    
H87      H      0.839304650000     0.157070710000     0.258187025000     0.36393    
H87      H      0.839304650000     0.157070710000     0.758187025000     0.36393    
H87      H      0.839304650000     0.657070710000     0.258187025000     0.36393    
H87      H      0.839304650000     0.657070710000     0.758187025000     0.36393    
H88      H      0.363028450000     0.015904040000     0.358180400000     0.041806   
H88      H      0.363028450000     0.015904040000     0.858180400000     0.041806   
H88      H      0.363028450000     0.515904040000     0.358180400000     0.041806   
H88      H      0.363028450000     0.515904040000     0.858180400000     0.041806   
H88      H      0.863028450000     0.015904040000     0.358180400000     0.041806   
H88      H      0.863028450000     0.015904040000     0.858180400000     0.041806   
H88      H      0.863028450000     0.515904040000     0.358180400000     0.041806   
H88      H      0.863028450000     0.515904040000     0.858180400000     0.041806   
H89      H      0.271282150000     0.045081760000     0.372797800000    -0.050258   
H89      H      0.271282150000     0.045081760000     0.872797800000    -0.050258   
H89      H      0.271282150000     0.545081760000     0.372797800000    -0.050258   
H89      H      0.271282150000     0.545081760000     0.872797800000    -0.050258   
H89      H      0.771282150000     0.045081760000     0.372797800000    -0.050258   
H89      H      0.771282150000     0.045081760000     0.872797800000    -0.050258   
H89      H      0.771282150000     0.545081760000     0.372797800000    -0.050258   
H89      H      0.771282150000     0.545081760000     0.872797800000    -0.050258   
C90      C      0.431937130000     0.412480100000     0.456577500000    -0.167883   
C90      C      0.431937130000     0.412480100000     0.956577500000    -0.167883   
C90      C      0.431937130000     0.912480100000     0.456577500000    -0.167883   
C90      C      0.431937130000     0.912480100000     0.956577500000    -0.167883   
C90      C      0.931937130000     0.412480100000     0.456577500000    -0.167883   
C90      C      0.931937130000     0.412480100000     0.956577500000    -0.167883   
C90      C      0.931937130000     0.912480100000     0.456577500000    -0.167883   
C90      C      0.931937130000     0.912480100000     0.956577500000    -0.167883   
C91      C      0.474499165000     0.386972370000     0.021570625000    -0.048657   
C91      C      0.474499165000     0.386972370000     0.521570625000    -0.048657   
C91      C      0.474499165000     0.886972370000     0.021570625000    -0.048657   
C91      C      0.474499165000     0.886972370000     0.521570625000    -0.048657   
C91      C      0.974499165000     0.386972370000     0.021570625000    -0.048657   
C91      C      0.974499165000     0.386972370000     0.521570625000    -0.048657   
C91      C      0.974499165000     0.886972370000     0.021570625000    -0.048657   
C91      C      0.974499165000     0.886972370000     0.521570625000    -0.048657   
C92      C      0.424679875000     0.404972850000     0.475848020000     0.146059   
C92      C      0.424679875000     0.404972850000     0.975848020000     0.146059   
C92      C      0.424679875000     0.904972850000     0.475848020000     0.146059   
C92      C      0.424679875000     0.904972850000     0.975848020000     0.146059   
C92      C      0.924679875000     0.404972850000     0.475848020000     0.146059   
C92      C      0.924679875000     0.404972850000     0.975848020000     0.146059   
C92      C      0.924679875000     0.904972850000     0.475848020000     0.146059   
C92      C      0.924679875000     0.904972850000     0.975848020000     0.146059   
C93      C      0.451480775000     0.399491070000     0.009137630000    -0.036663   
C93      C      0.451480775000     0.399491070000     0.509137630000    -0.036663   
C93      C      0.451480775000     0.899491070000     0.009137630000    -0.036663   
C93      C      0.451480775000     0.899491070000     0.509137630000    -0.036663   
C93      C      0.951480775000     0.399491070000     0.009137630000    -0.036663   
C93      C      0.951480775000     0.399491070000     0.509137630000    -0.036663   
C93      C      0.951480775000     0.899491070000     0.009137630000    -0.036663   
C93      C      0.951480775000     0.899491070000     0.509137630000    -0.036663   
C94      C      0.447706000000     0.393388500000     0.488953235000    -0.063963   
C94      C      0.447706000000     0.393388500000     0.988953235000    -0.063963   
C94      C      0.447706000000     0.893388500000     0.488953235000    -0.063963   
C94      C      0.447706000000     0.893388500000     0.988953235000    -0.063963   
C94      C      0.947706000000     0.393388500000     0.488953235000    -0.063963   
C94      C      0.947706000000     0.393388500000     0.988953235000    -0.063963   
C94      C      0.947706000000     0.893388500000     0.488953235000    -0.063963   
C94      C      0.947706000000     0.893388500000     0.988953235000    -0.063963   
C95      C      0.411868570000     0.425704775000     0.442324965000     0.002297   
C95      C      0.411868570000     0.425704775000     0.942324965000     0.002297   
C95      C      0.411868570000     0.925704775000     0.442324965000     0.002297   
C95      C      0.411868570000     0.925704775000     0.942324965000     0.002297   
C95      C      0.911868570000     0.425704775000     0.442324965000     0.002297   
C95      C      0.911868570000     0.425704775000     0.942324965000     0.002297   
C95      C      0.911868570000     0.925704775000     0.442324965000     0.002297   
C95      C      0.911868570000     0.925704775000     0.942324965000     0.002297   
C96      C      0.169998480000     0.496845300000     0.204602330000    -0.035832   
C96      C      0.169998480000     0.496845300000     0.704602330000    -0.035832   
C96      C      0.169998480000     0.996845300000     0.204602330000    -0.035832   
C96      C      0.169998480000     0.996845300000     0.704602330000    -0.035832   
C96      C      0.669998480000     0.496845300000     0.204602330000    -0.035832   
C96      C      0.669998480000     0.496845300000     0.704602330000    -0.035832   
C96      C      0.669998480000     0.996845300000     0.204602330000    -0.035832   
C96      C      0.669998480000     0.996845300000     0.704602330000    -0.035832   
C97      C      0.230786560000     0.058447785000     0.263226600000    -0.015053   
C97      C      0.230786560000     0.058447785000     0.763226600000    -0.015053   
C97      C      0.230786560000     0.558447785000     0.263226600000    -0.015053   
C97      C      0.230786560000     0.558447785000     0.763226600000    -0.015053   
C97      C      0.730786560000     0.058447785000     0.263226600000    -0.015053   
C97      C      0.730786560000     0.058447785000     0.763226600000    -0.015053   
C97      C      0.730786560000     0.558447785000     0.263226600000    -0.015053   
C97      C      0.730786560000     0.558447785000     0.763226600000    -0.015053   
C98      C      0.226225765000     0.022007180000     0.240314575000     0.1002     
C98      C      0.226225765000     0.022007180000     0.740314575000     0.1002     
C98      C      0.226225765000     0.522007180000     0.240314575000     0.1002     
C98      C      0.226225765000     0.522007180000     0.740314575000     0.1002     
C98      C      0.726225765000     0.022007180000     0.240314575000     0.1002     
C98      C      0.726225765000     0.022007180000     0.740314575000     0.1002     
C98      C      0.726225765000     0.522007180000     0.240314575000     0.1002     
C98      C      0.726225765000     0.522007180000     0.740314575000     0.1002     
C99      C      0.213409915000     0.011931280000     0.221385910000     0.063349   
C99      C      0.213409915000     0.011931280000     0.721385910000     0.063349   
C99      C      0.213409915000     0.511931280000     0.221385910000     0.063349   
C99      C      0.213409915000     0.511931280000     0.721385910000     0.063349   
C99      C      0.713409915000     0.011931280000     0.221385910000     0.063349   
C99      C      0.713409915000     0.011931280000     0.721385910000     0.063349   
C99      C      0.713409915000     0.511931280000     0.221385910000     0.063349   
C99      C      0.713409915000     0.511931280000     0.721385910000     0.063349   
C100     C      0.216527715000     0.044586160000     0.247106500000     0.050205   
C100     C      0.216527715000     0.044586160000     0.747106500000     0.050205   
C100     C      0.216527715000     0.544586160000     0.247106500000     0.050205   
C100     C      0.216527715000     0.544586160000     0.747106500000     0.050205   
C100     C      0.716527715000     0.044586160000     0.247106500000     0.050205   
C100     C      0.716527715000     0.044586160000     0.747106500000     0.050205   
C100     C      0.716527715000     0.544586160000     0.247106500000     0.050205   
C100     C      0.716527715000     0.544586160000     0.747106500000     0.050205   
C101     C      0.184728600000     0.010384260000     0.220692500000    -0.048561   
C101     C      0.184728600000     0.010384260000     0.720692500000    -0.048561   
C101     C      0.184728600000     0.510384260000     0.220692500000    -0.048561   
C101     C      0.184728600000     0.510384260000     0.720692500000    -0.048561   
C101     C      0.684728600000     0.010384260000     0.220692500000    -0.048561   
C101     C      0.684728600000     0.010384260000     0.720692500000    -0.048561   
C101     C      0.684728600000     0.510384260000     0.220692500000    -0.048561   
C101     C      0.684728600000     0.510384260000     0.720692500000    -0.048561   
C102     C      0.090962840000     0.012179735000     0.181880890000    -0.088486   
C102     C      0.090962840000     0.012179735000     0.681880890000    -0.088486   
C102     C      0.090962840000     0.512179735000     0.181880890000    -0.088486   
C102     C      0.090962840000     0.512179735000     0.681880890000    -0.088486   
C102     C      0.590962840000     0.012179735000     0.181880890000    -0.088486   
C102     C      0.590962840000     0.012179735000     0.681880890000    -0.088486   
C102     C      0.590962840000     0.512179735000     0.181880890000    -0.088486   
C102     C      0.590962840000     0.512179735000     0.681880890000    -0.088486   
C103     C      0.485271485000     0.088178925000     0.163079440000     0.24527    
C103     C      0.485271485000     0.088178925000     0.663079440000     0.24527    
C103     C      0.485271485000     0.588178925000     0.163079440000     0.24527    
C103     C      0.485271485000     0.588178925000     0.663079440000     0.24527    
C103     C      0.985271485000     0.088178925000     0.163079440000     0.24527    
C103     C      0.985271485000     0.088178925000     0.663079440000     0.24527    
C103     C      0.985271485000     0.588178925000     0.163079440000     0.24527    
C103     C      0.985271485000     0.588178925000     0.663079440000     0.24527    
C104     C      0.490437500000     0.110563120000     0.173621490000     0.065761   
C104     C      0.490437500000     0.110563120000     0.673621490000     0.065761   
C104     C      0.490437500000     0.610563120000     0.173621490000     0.065761   
C104     C      0.490437500000     0.610563120000     0.673621490000     0.065761   
C104     C      0.990437500000     0.110563120000     0.173621490000     0.065761   
C104     C      0.990437500000     0.110563120000     0.673621490000     0.065761   
C104     C      0.990437500000     0.610563120000     0.173621490000     0.065761   
C104     C      0.990437500000     0.610563120000     0.673621490000     0.065761   
C105     C      0.015540845000     0.112366780000     0.185759200000    -0.056825   
C105     C      0.015540845000     0.112366780000     0.685759200000    -0.056825   
C105     C      0.015540845000     0.612366780000     0.185759200000    -0.056825   
C105     C      0.015540845000     0.612366780000     0.685759200000    -0.056825   
C105     C      0.515540845000     0.112366780000     0.185759200000    -0.056825   
C105     C      0.515540845000     0.112366780000     0.685759200000    -0.056825   
C105     C      0.515540845000     0.612366780000     0.185759200000    -0.056825   
C105     C      0.515540845000     0.612366780000     0.685759200000    -0.056825   
C106     C      0.035485985000     0.092062375000     0.186889200000    -0.001194   
C106     C      0.035485985000     0.092062375000     0.686889200000    -0.001194   
C106     C      0.035485985000     0.592062375000     0.186889200000    -0.001194   
C106     C      0.035485985000     0.592062375000     0.686889200000    -0.001194   
C106     C      0.535485985000     0.092062375000     0.186889200000    -0.001194   
C106     C      0.535485985000     0.092062375000     0.686889200000    -0.001194   
C106     C      0.535485985000     0.592062375000     0.186889200000    -0.001194   
C106     C      0.535485985000     0.592062375000     0.686889200000    -0.001194   
C107     C      0.030517845000     0.069753140000     0.176803000000    -0.040195   
C107     C      0.030517845000     0.069753140000     0.676803000000    -0.040195   
C107     C      0.030517845000     0.569753140000     0.176803000000    -0.040195   
C107     C      0.030517845000     0.569753140000     0.676803000000    -0.040195   
C107     C      0.530517845000     0.069753140000     0.176803000000    -0.040195   
C107     C      0.530517845000     0.069753140000     0.676803000000    -0.040195   
C107     C      0.530517845000     0.569753140000     0.176803000000    -0.040195   
C107     C      0.530517845000     0.569753140000     0.676803000000    -0.040195   
C108     C      0.005003415000     0.067287415000     0.165176285000    -0.003183   
C108     C      0.005003415000     0.067287415000     0.665176285000    -0.003183   
C108     C      0.005003415000     0.567287415000     0.165176285000    -0.003183   
C108     C      0.005003415000     0.567287415000     0.665176285000    -0.003183   
C108     C      0.505003415000     0.067287415000     0.165176285000    -0.003183   
C108     C      0.505003415000     0.067287415000     0.665176285000    -0.003183   
C108     C      0.505003415000     0.567287415000     0.165176285000    -0.003183   
C108     C      0.505003415000     0.567287415000     0.665176285000    -0.003183   
C109     C      0.470356880000     0.131921770000     0.171363950000    -0.05225    
C109     C      0.470356880000     0.131921770000     0.671363950000    -0.05225    
C109     C      0.470356880000     0.631921770000     0.171363950000    -0.05225    
C109     C      0.470356880000     0.631921770000     0.671363950000    -0.05225    
C109     C      0.970356880000     0.131921770000     0.171363950000    -0.05225    
C109     C      0.970356880000     0.131921770000     0.671363950000    -0.05225    
C109     C      0.970356880000     0.631921770000     0.171363950000    -0.05225    
C109     C      0.970356880000     0.631921770000     0.671363950000    -0.05225    
C110     C      0.052236045000     0.049663805000     0.178618150000     0.015243   
C110     C      0.052236045000     0.049663805000     0.678618150000     0.015243   
C110     C      0.052236045000     0.549663805000     0.178618150000     0.015243   
C110     C      0.052236045000     0.549663805000     0.678618150000     0.015243   
C110     C      0.552236045000     0.049663805000     0.178618150000     0.015243   
C110     C      0.552236045000     0.049663805000     0.678618150000     0.015243   
C110     C      0.552236045000     0.549663805000     0.178618150000     0.015243   
C110     C      0.552236045000     0.549663805000     0.678618150000     0.015243   
C111     C      0.070133200000     0.032711510000     0.180146770000    -0.029848   
C111     C      0.070133200000     0.032711510000     0.680146770000    -0.029848   
C111     C      0.070133200000     0.532711510000     0.180146770000    -0.029848   
C111     C      0.070133200000     0.532711510000     0.680146770000    -0.029848   
C111     C      0.570133200000     0.032711510000     0.180146770000    -0.029848   
C111     C      0.570133200000     0.032711510000     0.680146770000    -0.029848   
C111     C      0.570133200000     0.532711510000     0.180146770000    -0.029848   
C111     C      0.570133200000     0.532711510000     0.680146770000    -0.029848   
C112     C      0.453327650000     0.149458500000     0.169635490000    -0.008098   
C112     C      0.453327650000     0.149458500000     0.669635490000    -0.008098   
C112     C      0.453327650000     0.649458500000     0.169635490000    -0.008098   
C112     C      0.453327650000     0.649458500000     0.669635490000    -0.008098   
C112     C      0.953327650000     0.149458500000     0.169635490000    -0.008098   
C112     C      0.953327650000     0.149458500000     0.669635490000    -0.008098   
C112     C      0.953327650000     0.649458500000     0.169635490000    -0.008098   
C112     C      0.953327650000     0.649458500000     0.669635490000    -0.008098   
C113     C      0.432758600000     0.170125740000     0.167788150000    -0.041963   
C113     C      0.432758600000     0.170125740000     0.667788150000    -0.041963   
C113     C      0.432758600000     0.670125740000     0.167788150000    -0.041963   
C113     C      0.432758600000     0.670125740000     0.667788150000    -0.041963   
C113     C      0.932758600000     0.170125740000     0.167788150000    -0.041963   
C113     C      0.932758600000     0.170125740000     0.667788150000    -0.041963   
C113     C      0.932758600000     0.670125740000     0.167788150000    -0.041963   
C113     C      0.932758600000     0.670125740000     0.667788150000    -0.041963   
C114     C      0.459748450000     0.087329785000     0.149282470000    -0.015218   
C114     C      0.459748450000     0.087329785000     0.649282470000    -0.015218   
C114     C      0.459748450000     0.587329785000     0.149282470000    -0.015218   
C114     C      0.459748450000     0.587329785000     0.649282470000    -0.015218   
C114     C      0.959748450000     0.087329785000     0.149282470000    -0.015218   
C114     C      0.959748450000     0.087329785000     0.649282470000    -0.015218   
C114     C      0.959748450000     0.587329785000     0.149282470000    -0.015218   
C114     C      0.959748450000     0.587329785000     0.649282470000    -0.015218   
C115     C      0.462969870000     0.087081805000     0.127418600000    -0.046844   
C115     C      0.462969870000     0.087081805000     0.627418600000    -0.046844   
C115     C      0.462969870000     0.587081805000     0.127418600000    -0.046844   
C115     C      0.462969870000     0.587081805000     0.627418600000    -0.046844   
C115     C      0.962969870000     0.087081805000     0.127418600000    -0.046844   
C115     C      0.962969870000     0.087081805000     0.627418600000    -0.046844   
C115     C      0.962969870000     0.587081805000     0.127418600000    -0.046844   
C115     C      0.962969870000     0.587081805000     0.627418600000    -0.046844   
C116     C      0.438852750000     0.086974120000     0.114393840000     0.021226   
C116     C      0.438852750000     0.086974120000     0.614393840000     0.021226   
C116     C      0.438852750000     0.586974120000     0.114393840000     0.021226   
C116     C      0.438852750000     0.586974120000     0.614393840000     0.021226   
C116     C      0.938852750000     0.086974120000     0.114393840000     0.021226   
C116     C      0.938852750000     0.086974120000     0.614393840000     0.021226   
C116     C      0.938852750000     0.586974120000     0.114393840000     0.021226   
C116     C      0.938852750000     0.586974120000     0.614393840000     0.021226   
C117     C      0.411430200000     0.087253960000     0.123101935000    -0.075357   
C117     C      0.411430200000     0.087253960000     0.623101935000    -0.075357   
C117     C      0.411430200000     0.587253960000     0.123101935000    -0.075357   
C117     C      0.411430200000     0.587253960000     0.623101935000    -0.075357   
C117     C      0.911430200000     0.087253960000     0.123101935000    -0.075357   
C117     C      0.911430200000     0.087253960000     0.623101935000    -0.075357   
C117     C      0.911430200000     0.587253960000     0.123101935000    -0.075357   
C117     C      0.911430200000     0.587253960000     0.623101935000    -0.075357   
C118     C      0.408071665000     0.087621680000     0.144856750000     0.004502   
C118     C      0.408071665000     0.087621680000     0.644856750000     0.004502   
C118     C      0.408071665000     0.587621680000     0.144856750000     0.004502   
C118     C      0.408071665000     0.587621680000     0.644856750000     0.004502   
C118     C      0.908071665000     0.087621680000     0.144856750000     0.004502   
C118     C      0.908071665000     0.087621680000     0.644856750000     0.004502   
C118     C      0.908071665000     0.587621680000     0.144856750000     0.004502   
C118     C      0.908071665000     0.587621680000     0.644856750000     0.004502   
C119     C      0.432130450000     0.087670245000     0.157941050000    -0.048945   
C119     C      0.432130450000     0.087670245000     0.657941050000    -0.048945   
C119     C      0.432130450000     0.587670245000     0.157941050000    -0.048945   
C119     C      0.432130450000     0.587670245000     0.657941050000    -0.048945   
C119     C      0.932130450000     0.087670245000     0.157941050000    -0.048945   
C119     C      0.932130450000     0.087670245000     0.657941050000    -0.048945   
C119     C      0.932130450000     0.587670245000     0.157941050000    -0.048945   
C119     C      0.932130450000     0.587670245000     0.657941050000    -0.048945   
C120     C      0.021709090000     0.135425250000     0.197150185000     0.045803   
C120     C      0.021709090000     0.135425250000     0.697150185000     0.045803   
C120     C      0.021709090000     0.635425250000     0.197150185000     0.045803   
C120     C      0.021709090000     0.635425250000     0.697150185000     0.045803   
C120     C      0.521709090000     0.135425250000     0.197150185000     0.045803   
C120     C      0.521709090000     0.135425250000     0.697150185000     0.045803   
C120     C      0.521709090000     0.635425250000     0.197150185000     0.045803   
C120     C      0.521709090000     0.635425250000     0.697150185000     0.045803   
C121     C      0.002253980000     0.145765915000     0.211988300000     0.033651   
C121     C      0.002253980000     0.145765915000     0.711988300000     0.033651   
C121     C      0.002253980000     0.645765915000     0.211988300000     0.033651   
C121     C      0.002253980000     0.645765915000     0.711988300000     0.033651   
C121     C      0.502253980000     0.145765915000     0.211988300000     0.033651   
C121     C      0.502253980000     0.145765915000     0.711988300000     0.033651   
C121     C      0.502253980000     0.645765915000     0.211988300000     0.033651   
C121     C      0.502253980000     0.645765915000     0.711988300000     0.033651   
C122     C      0.008119485000     0.167534335000     0.222618500000     0.287243   
C122     C      0.008119485000     0.167534335000     0.722618500000     0.287243   
C122     C      0.008119485000     0.667534335000     0.222618500000     0.287243   
C122     C      0.008119485000     0.667534335000     0.722618500000     0.287243   
C122     C      0.508119485000     0.167534335000     0.222618500000     0.287243   
C122     C      0.508119485000     0.167534335000     0.722618500000     0.287243   
C122     C      0.508119485000     0.667534335000     0.222618500000     0.287243   
C122     C      0.508119485000     0.667534335000     0.722618500000     0.287243   
C123     C      0.033500260000     0.179038150000     0.218656225000     0.277623   
C123     C      0.033500260000     0.179038150000     0.718656225000     0.277623   
C123     C      0.033500260000     0.679038150000     0.218656225000     0.277623   
C123     C      0.033500260000     0.679038150000     0.718656225000     0.277623   
C123     C      0.533500260000     0.179038150000     0.218656225000     0.277623   
C123     C      0.533500260000     0.179038150000     0.718656225000     0.277623   
C123     C      0.533500260000     0.679038150000     0.218656225000     0.277623   
C123     C      0.533500260000     0.679038150000     0.718656225000     0.277623   
C124     C      0.053074310000     0.168791750000     0.204058750000    -0.043066   
C124     C      0.053074310000     0.168791750000     0.704058750000    -0.043066   
C124     C      0.053074310000     0.668791750000     0.204058750000    -0.043066   
C124     C      0.053074310000     0.668791750000     0.704058750000    -0.043066   
C124     C      0.553074310000     0.168791750000     0.204058750000    -0.043066   
C124     C      0.553074310000     0.168791750000     0.704058750000    -0.043066   
C124     C      0.553074310000     0.668791750000     0.204058750000    -0.043066   
C124     C      0.553074310000     0.668791750000     0.704058750000    -0.043066   
C125     C      0.047281215000     0.147036730000     0.193373280000    -0.020745   
C125     C      0.047281215000     0.147036730000     0.693373280000    -0.020745   
C125     C      0.047281215000     0.647036730000     0.193373280000    -0.020745   
C125     C      0.047281215000     0.647036730000     0.693373280000    -0.020745   
C125     C      0.547281215000     0.147036730000     0.193373280000    -0.020745   
C125     C      0.547281215000     0.147036730000     0.693373280000    -0.020745   
C125     C      0.547281215000     0.647036730000     0.193373280000    -0.020745   
C125     C      0.547281215000     0.647036730000     0.693373280000    -0.020745   
C126     C      0.277871430000     0.314274850000     0.475986720000    -0.019588   
C126     C      0.277871430000     0.314274850000     0.975986720000    -0.019588   
C126     C      0.277871430000     0.814274850000     0.475986720000    -0.019588   
C126     C      0.277871430000     0.814274850000     0.975986720000    -0.019588   
C126     C      0.777871430000     0.314274850000     0.475986720000    -0.019588   
C126     C      0.777871430000     0.314274850000     0.975986720000    -0.019588   
C126     C      0.777871430000     0.814274850000     0.475986720000    -0.019588   
C126     C      0.777871430000     0.814274850000     0.975986720000    -0.019588   
C127     C      0.291961520000     0.336105500000     0.478217335000     0.320196   
C127     C      0.291961520000     0.336105500000     0.978217335000     0.320196   
C127     C      0.291961520000     0.836105500000     0.478217335000     0.320196   
C127     C      0.291961520000     0.836105500000     0.978217335000     0.320196   
C127     C      0.791961520000     0.336105500000     0.478217335000     0.320196   
C127     C      0.791961520000     0.336105500000     0.978217335000     0.320196   
C127     C      0.791961520000     0.836105500000     0.478217335000     0.320196   
C127     C      0.791961520000     0.836105500000     0.978217335000     0.320196   
C128     C      0.288777450000     0.354445700000     0.462413550000    -0.094792   
C128     C      0.288777450000     0.354445700000     0.962413550000    -0.094792   
C128     C      0.288777450000     0.854445700000     0.462413550000    -0.094792   
C128     C      0.288777450000     0.854445700000     0.962413550000    -0.094792   
C128     C      0.788777450000     0.354445700000     0.462413550000    -0.094792   
C128     C      0.788777450000     0.354445700000     0.962413550000    -0.094792   
C128     C      0.788777450000     0.854445700000     0.462413550000    -0.094792   
C128     C      0.788777450000     0.854445700000     0.962413550000    -0.094792   
C129     C      0.217903035000     0.336305050000     0.391316000000     0.115158   
C129     C      0.217903035000     0.336305050000     0.891316000000     0.115158   
C129     C      0.217903035000     0.836305050000     0.391316000000     0.115158   
C129     C      0.217903035000     0.836305050000     0.891316000000     0.115158   
C129     C      0.717903035000     0.336305050000     0.391316000000     0.115158   
C129     C      0.717903035000     0.336305050000     0.891316000000     0.115158   
C129     C      0.717903035000     0.836305050000     0.391316000000     0.115158   
C129     C      0.717903035000     0.836305050000     0.891316000000     0.115158   
C130     C      0.236104415000     0.340552250000     0.408615100000     0.058634   
C130     C      0.236104415000     0.340552250000     0.908615100000     0.058634   
C130     C      0.236104415000     0.840552250000     0.408615100000     0.058634   
C130     C      0.236104415000     0.840552250000     0.908615100000     0.058634   
C130     C      0.736104415000     0.340552250000     0.408615100000     0.058634   
C130     C      0.736104415000     0.340552250000     0.908615100000     0.058634   
C130     C      0.736104415000     0.840552250000     0.408615100000     0.058634   
C130     C      0.736104415000     0.840552250000     0.908615100000     0.058634   
C131     C      0.251558350000     0.362128735000     0.409053350000     0.019872   
C131     C      0.251558350000     0.362128735000     0.909053350000     0.019872   
C131     C      0.251558350000     0.862128735000     0.409053350000     0.019872   
C131     C      0.251558350000     0.862128735000     0.909053350000     0.019872   
C131     C      0.751558350000     0.362128735000     0.409053350000     0.019872   
C131     C      0.751558350000     0.362128735000     0.909053350000     0.019872   
C131     C      0.751558350000     0.862128735000     0.409053350000     0.019872   
C131     C      0.751558350000     0.862128735000     0.909053350000     0.019872   
C132     C      0.223427085000     0.301122400000     0.424577600000    -0.072963   
C132     C      0.223427085000     0.301122400000     0.924577600000    -0.072963   
C132     C      0.223427085000     0.801122400000     0.424577600000    -0.072963   
C132     C      0.223427085000     0.801122400000     0.924577600000    -0.072963   
C132     C      0.723427085000     0.301122400000     0.424577600000    -0.072963   
C132     C      0.723427085000     0.301122400000     0.924577600000    -0.072963   
C132     C      0.723427085000     0.801122400000     0.424577600000    -0.072963   
C132     C      0.723427085000     0.801122400000     0.924577600000    -0.072963   
C133     C      0.285633980000     0.388962475000     0.425770150000    -0.065061   
C133     C      0.285633980000     0.388962475000     0.925770150000    -0.065061   
C133     C      0.285633980000     0.888962475000     0.425770150000    -0.065061   
C133     C      0.285633980000     0.888962475000     0.925770150000    -0.065061   
C133     C      0.785633980000     0.388962475000     0.425770150000    -0.065061   
C133     C      0.785633980000     0.388962475000     0.925770150000    -0.065061   
C133     C      0.785633980000     0.888962475000     0.425770150000    -0.065061   
C133     C      0.785633980000     0.888962475000     0.925770150000    -0.065061   
C134     C      0.248521535000     0.378799470000     0.391963700000     0.296931   
C134     C      0.248521535000     0.378799470000     0.891963700000     0.296931   
C134     C      0.248521535000     0.878799470000     0.391963700000     0.296931   
C134     C      0.248521535000     0.878799470000     0.891963700000     0.296931   
C134     C      0.748521535000     0.378799470000     0.391963700000     0.296931   
C134     C      0.748521535000     0.378799470000     0.891963700000     0.296931   
C134     C      0.748521535000     0.878799470000     0.391963700000     0.296931   
C134     C      0.748521535000     0.878799470000     0.891963700000     0.296931   
C135     C      0.230430100000     0.374263750000     0.375169450000     0.268674   
C135     C      0.230430100000     0.374263750000     0.875169450000     0.268674   
C135     C      0.230430100000     0.874263750000     0.375169450000     0.268674   
C135     C      0.230430100000     0.874263750000     0.875169450000     0.268674   
C135     C      0.730430100000     0.374263750000     0.375169450000     0.268674   
C135     C      0.730430100000     0.374263750000     0.875169450000     0.268674   
C135     C      0.730430100000     0.874263750000     0.375169450000     0.268674   
C135     C      0.730430100000     0.874263750000     0.875169450000     0.268674   
C136     C      0.215105200000     0.353085000000     0.374866130000     0.088746   
C136     C      0.215105200000     0.353085000000     0.874866130000     0.088746   
C136     C      0.215105200000     0.853085000000     0.374866130000     0.088746   
C136     C      0.215105200000     0.853085000000     0.874866130000     0.088746   
C136     C      0.715105200000     0.353085000000     0.374866130000     0.088746   
C136     C      0.715105200000     0.353085000000     0.874866130000     0.088746   
C136     C      0.715105200000     0.853085000000     0.374866130000     0.088746   
C136     C      0.715105200000     0.853085000000     0.874866130000     0.088746   
C137     C      0.309553050000     0.339186130000     0.497530880000     0.050595   
C137     C      0.309553050000     0.339186130000     0.997530880000     0.050595   
C137     C      0.309553050000     0.839186130000     0.497530880000     0.050595   
C137     C      0.309553050000     0.839186130000     0.997530880000     0.050595   
C137     C      0.809553050000     0.339186130000     0.497530880000     0.050595   
C137     C      0.809553050000     0.339186130000     0.997530880000     0.050595   
C137     C      0.809553050000     0.839186130000     0.497530880000     0.050595   
C137     C      0.809553050000     0.839186130000     0.997530880000     0.050595   
C138     C      0.239450530000     0.323476950000     0.425157070000    -0.043185   
C138     C      0.239450530000     0.323476950000     0.925157070000    -0.043185   
C138     C      0.239450530000     0.823476950000     0.425157070000    -0.043185   
C138     C      0.239450530000     0.823476950000     0.925157070000    -0.043185   
C138     C      0.739450530000     0.323476950000     0.425157070000    -0.043185   
C138     C      0.739450530000     0.323476950000     0.925157070000    -0.043185   
C138     C      0.739450530000     0.823476950000     0.425157070000    -0.043185   
C138     C      0.739450530000     0.823476950000     0.925157070000    -0.043185   
C139     C      0.300144075000     0.378247770000     0.466924070000    -0.136999   
C139     C      0.300144075000     0.378247770000     0.966924070000    -0.136999   
C139     C      0.300144075000     0.878247770000     0.466924070000    -0.136999   
C139     C      0.300144075000     0.878247770000     0.966924070000    -0.136999   
C139     C      0.800144075000     0.378247770000     0.466924070000    -0.136999   
C139     C      0.800144075000     0.378247770000     0.966924070000    -0.136999   
C139     C      0.800144075000     0.878247770000     0.466924070000    -0.136999   
C139     C      0.800144075000     0.878247770000     0.966924070000    -0.136999   
C140     C      0.257666380000     0.327791350000     0.442409600000    -0.025443   
C140     C      0.257666380000     0.327791350000     0.942409600000    -0.025443   
C140     C      0.257666380000     0.827791350000     0.442409600000    -0.025443   
C140     C      0.257666380000     0.827791350000     0.942409600000    -0.025443   
C140     C      0.757666380000     0.327791350000     0.442409600000    -0.025443   
C140     C      0.757666380000     0.327791350000     0.942409600000    -0.025443   
C140     C      0.757666380000     0.827791350000     0.442409600000    -0.025443   
C140     C      0.757666380000     0.827791350000     0.942409600000    -0.025443   
C141     C      0.272411450000     0.349958270000     0.443676920000    -0.113486   
C141     C      0.272411450000     0.349958270000     0.943676920000    -0.113486   
C141     C      0.272411450000     0.849958270000     0.443676920000    -0.113486   
C141     C      0.272411450000     0.849958270000     0.943676920000    -0.113486   
C141     C      0.772411450000     0.349958270000     0.443676920000    -0.113486   
C141     C      0.772411450000     0.349958270000     0.943676920000    -0.113486   
C141     C      0.772411450000     0.849958270000     0.443676920000    -0.113486   
C141     C      0.772411450000     0.849958270000     0.943676920000    -0.113486   
C142     C      0.269713285000     0.366660650000     0.426335780000    -1.15834    
C142     C      0.269713285000     0.366660650000     0.926335780000    -1.15834    
C142     C      0.269713285000     0.866660650000     0.426335780000    -1.15834    
C142     C      0.269713285000     0.866660650000     0.926335780000    -1.15834    
C142     C      0.769713285000     0.366660650000     0.426335780000    -1.15834    
C142     C      0.769713285000     0.366660650000     0.926335780000    -1.15834    
C142     C      0.769713285000     0.866660650000     0.426335780000    -1.15834    
C142     C      0.769713285000     0.866660650000     0.926335780000    -1.15834    
C143     C      0.260801585000     0.310319870000     0.458706470000     0.285707   
C143     C      0.260801585000     0.310319870000     0.958706470000     0.285707   
C143     C      0.260801585000     0.810319870000     0.458706470000     0.285707   
C143     C      0.260801585000     0.810319870000     0.958706470000     0.285707   
C143     C      0.760801585000     0.310319870000     0.458706470000     0.285707   
C143     C      0.760801585000     0.310319870000     0.958706470000     0.285707   
C143     C      0.760801585000     0.810319870000     0.458706470000     0.285707   
C143     C      0.760801585000     0.810319870000     0.958706470000     0.285707   
C144     C      0.110810360000     0.132488700000     0.427587900000    -0.07776    
C144     C      0.110810360000     0.132488700000     0.927587900000    -0.07776    
C144     C      0.110810360000     0.632488700000     0.427587900000    -0.07776    
C144     C      0.110810360000     0.632488700000     0.927587900000    -0.07776    
C144     C      0.610810360000     0.132488700000     0.427587900000    -0.07776    
C144     C      0.610810360000     0.132488700000     0.927587900000    -0.07776    
C144     C      0.610810360000     0.632488700000     0.427587900000    -0.07776    
C144     C      0.610810360000     0.632488700000     0.927587900000    -0.07776    
C145     C      0.401015950000     0.056159010000     0.423509330000    -0.056209   
C145     C      0.401015950000     0.056159010000     0.923509330000    -0.056209   
C145     C      0.401015950000     0.556159010000     0.423509330000    -0.056209   
C145     C      0.401015950000     0.556159010000     0.923509330000    -0.056209   
C145     C      0.901015950000     0.056159010000     0.423509330000    -0.056209   
C145     C      0.901015950000     0.056159010000     0.923509330000    -0.056209   
C145     C      0.901015950000     0.556159010000     0.423509330000    -0.056209   
C145     C      0.901015950000     0.556159010000     0.923509330000    -0.056209   
C146     C      0.489441650000     0.106355780000     0.411078485000    -0.041797   
C146     C      0.489441650000     0.106355780000     0.911078485000    -0.041797   
C146     C      0.489441650000     0.606355780000     0.411078485000    -0.041797   
C146     C      0.489441650000     0.606355780000     0.911078485000    -0.041797   
C146     C      0.989441650000     0.106355780000     0.411078485000    -0.041797   
C146     C      0.989441650000     0.106355780000     0.911078485000    -0.041797   
C146     C      0.989441650000     0.606355780000     0.411078485000    -0.041797   
C146     C      0.989441650000     0.606355780000     0.911078485000    -0.041797   
C147     C      0.493360350000     0.097450815000     0.444385620000     0.063906   
C147     C      0.493360350000     0.097450815000     0.944385620000     0.063906   
C147     C      0.493360350000     0.597450815000     0.444385620000     0.063906   
C147     C      0.493360350000     0.597450815000     0.944385620000     0.063906   
C147     C      0.993360350000     0.097450815000     0.444385620000     0.063906   
C147     C      0.993360350000     0.097450815000     0.944385620000     0.063906   
C147     C      0.993360350000     0.597450815000     0.444385620000     0.063906   
C147     C      0.993360350000     0.597450815000     0.944385620000     0.063906   
C148     C      0.018324075000     0.091657965000     0.406662075000    -0.113543   
C148     C      0.018324075000     0.091657965000     0.906662075000    -0.113543   
C148     C      0.018324075000     0.591657965000     0.406662075000    -0.113543   
C148     C      0.018324075000     0.591657965000     0.906662075000    -0.113543   
C148     C      0.518324075000     0.091657965000     0.406662075000    -0.113543   
C148     C      0.518324075000     0.091657965000     0.906662075000    -0.113543   
C148     C      0.518324075000     0.591657965000     0.406662075000    -0.113543   
C148     C      0.518324075000     0.591657965000     0.906662075000    -0.113543   
C149     C      0.022273085000     0.082675910000     0.440250300000     0.001598   
C149     C      0.022273085000     0.082675910000     0.940250300000     0.001598   
C149     C      0.022273085000     0.582675910000     0.440250300000     0.001598   
C149     C      0.022273085000     0.582675910000     0.940250300000     0.001598   
C149     C      0.522273085000     0.082675910000     0.440250300000     0.001598   
C149     C      0.522273085000     0.082675910000     0.940250300000     0.001598   
C149     C      0.522273085000     0.582675910000     0.440250300000     0.001598   
C149     C      0.522273085000     0.582675910000     0.940250300000     0.001598   
C150     C      0.083104125000     0.122429490000     0.427052080000    -0.170418   
C150     C      0.083104125000     0.122429490000     0.927052080000    -0.170418   
C150     C      0.083104125000     0.622429490000     0.427052080000    -0.170418   
C150     C      0.083104125000     0.622429490000     0.927052080000    -0.170418   
C150     C      0.583104125000     0.122429490000     0.427052080000    -0.170418   
C150     C      0.583104125000     0.122429490000     0.927052080000    -0.170418   
C150     C      0.583104125000     0.622429490000     0.427052080000    -0.170418   
C150     C      0.583104125000     0.622429490000     0.927052080000    -0.170418   
C151     C      0.428706200000     0.066254050000     0.424052850000    -0.133847   
C151     C      0.428706200000     0.066254050000     0.924052850000    -0.133847   
C151     C      0.428706200000     0.566254050000     0.424052850000    -0.133847   
C151     C      0.428706200000     0.566254050000     0.924052850000    -0.133847   
C151     C      0.928706200000     0.066254050000     0.424052850000    -0.133847   
C151     C      0.928706200000     0.066254050000     0.924052850000    -0.133847   
C151     C      0.928706200000     0.566254050000     0.424052850000    -0.133847   
C151     C      0.928706200000     0.566254050000     0.924052850000    -0.133847   
C152     C      0.002714285000     0.118390510000     0.430322700000     0.019096   
C152     C      0.002714285000     0.118390510000     0.930322700000     0.019096   
C152     C      0.002714285000     0.618390510000     0.430322700000     0.019096   
C152     C      0.002714285000     0.618390510000     0.930322700000     0.019096   
C152     C      0.502714285000     0.118390510000     0.430322700000     0.019096   
C152     C      0.502714285000     0.118390510000     0.930322700000     0.019096   
C152     C      0.502714285000     0.618390510000     0.430322700000     0.019096   
C152     C      0.502714285000     0.618390510000     0.930322700000     0.019096   
C153     C      0.031376095000     0.103958530000     0.426112770000    -0.179003   
C153     C      0.031376095000     0.103958530000     0.926112770000    -0.179003   
C153     C      0.031376095000     0.603958530000     0.426112770000    -0.179003   
C153     C      0.031376095000     0.603958530000     0.926112770000    -0.179003   
C153     C      0.531376095000     0.103958530000     0.426112770000    -0.179003   
C153     C      0.531376095000     0.103958530000     0.926112770000    -0.179003   
C153     C      0.531376095000     0.603958530000     0.426112770000    -0.179003   
C153     C      0.531376095000     0.603958530000     0.926112770000    -0.179003   
C154     C      0.480176900000     0.085219845000     0.425105335000     0.234078   
C154     C      0.480176900000     0.085219845000     0.925105335000     0.234078   
C154     C      0.480176900000     0.585219845000     0.425105335000     0.234078   
C154     C      0.480176900000     0.585219845000     0.925105335000     0.234078   
C154     C      0.980176900000     0.085219845000     0.425105335000     0.234078   
C154     C      0.980176900000     0.085219845000     0.925105335000     0.234078   
C154     C      0.980176900000     0.585219845000     0.425105335000     0.234078   
C154     C      0.980176900000     0.585219845000     0.925105335000     0.234078   
C155     C      0.008805880000     0.070321605000     0.420804380000     0.184648   
C155     C      0.008805880000     0.070321605000     0.920804380000     0.184648   
C155     C      0.008805880000     0.570321605000     0.420804380000     0.184648   
C155     C      0.008805880000     0.570321605000     0.920804380000     0.184648   
C155     C      0.508805880000     0.070321605000     0.420804380000     0.184648   
C155     C      0.508805880000     0.070321605000     0.920804380000     0.184648   
C155     C      0.508805880000     0.570321605000     0.420804380000     0.184648   
C155     C      0.508805880000     0.570321605000     0.920804380000     0.184648   
C156     C      0.059786150000     0.114052600000     0.426620425000    -0.112277   
C156     C      0.059786150000     0.114052600000     0.926620425000    -0.112277   
C156     C      0.059786150000     0.614052600000     0.426620425000    -0.112277   
C156     C      0.059786150000     0.614052600000     0.926620425000    -0.112277   
C156     C      0.559786150000     0.114052600000     0.426620425000    -0.112277   
C156     C      0.559786150000     0.114052600000     0.926620425000    -0.112277   
C156     C      0.559786150000     0.614052600000     0.426620425000    -0.112277   
C156     C      0.559786150000     0.614052600000     0.926620425000    -0.112277   
C157     C      0.451940180000     0.074763210000     0.424517000000    -0.093756   
C157     C      0.451940180000     0.074763210000     0.924517000000    -0.093756   
C157     C      0.451940180000     0.574763210000     0.424517000000    -0.093756   
C157     C      0.451940180000     0.574763210000     0.924517000000    -0.093756   
C157     C      0.951940180000     0.074763210000     0.424517000000    -0.093756   
C157     C      0.951940180000     0.074763210000     0.924517000000    -0.093756   
C157     C      0.951940180000     0.574763210000     0.424517000000    -0.093756   
C157     C      0.951940180000     0.574763210000     0.924517000000    -0.093756   
C158     C      0.470254125000     0.119388780000     0.394577450000     0.083944   
C158     C      0.470254125000     0.119388780000     0.894577450000     0.083944   
C158     C      0.470254125000     0.619388780000     0.394577450000     0.083944   
C158     C      0.470254125000     0.619388780000     0.894577450000     0.083944   
C158     C      0.970254125000     0.119388780000     0.394577450000     0.083944   
C158     C      0.970254125000     0.119388780000     0.894577450000     0.083944   
C158     C      0.970254125000     0.619388780000     0.394577450000     0.083944   
C158     C      0.970254125000     0.619388780000     0.894577450000     0.083944   
C159     C      0.486432900000     0.138361780000     0.382280765000     0.090702   
C159     C      0.486432900000     0.138361780000     0.882280765000     0.090702   
C159     C      0.486432900000     0.638361780000     0.382280765000     0.090702   
C159     C      0.486432900000     0.638361780000     0.882280765000     0.090702   
C159     C      0.986432900000     0.138361780000     0.382280765000     0.090702   
C159     C      0.986432900000     0.138361780000     0.882280765000     0.090702   
C159     C      0.986432900000     0.638361780000     0.382280765000     0.090702   
C159     C      0.986432900000     0.638361780000     0.882280765000     0.090702   
C160     C      0.467037200000     0.151386930000     0.365962450000     0.415578   
C160     C      0.467037200000     0.151386930000     0.865962450000     0.415578   
C160     C      0.467037200000     0.651386930000     0.365962450000     0.415578   
C160     C      0.467037200000     0.651386930000     0.865962450000     0.415578   
C160     C      0.967037200000     0.151386930000     0.365962450000     0.415578   
C160     C      0.967037200000     0.151386930000     0.865962450000     0.415578   
C160     C      0.967037200000     0.651386930000     0.365962450000     0.415578   
C160     C      0.967037200000     0.651386930000     0.865962450000     0.415578   
C161     C      0.478625800000     0.100385995000     0.465659850000     0.294717   
C161     C      0.478625800000     0.100385995000     0.965659850000     0.294717   
C161     C      0.478625800000     0.600385995000     0.465659850000     0.294717   
C161     C      0.478625800000     0.600385995000     0.965659850000     0.294717   
C161     C      0.978625800000     0.100385995000     0.465659850000     0.294717   
C161     C      0.978625800000     0.100385995000     0.965659850000     0.294717   
C161     C      0.978625800000     0.600385995000     0.465659850000     0.294717   
C161     C      0.978625800000     0.600385995000     0.965659850000     0.294717   
C162     C      0.498174900000     0.111712495000     0.481957225000    -0.182116   
C162     C      0.498174900000     0.111712495000     0.981957225000    -0.182116   
C162     C      0.498174900000     0.611712495000     0.481957225000    -0.182116   
C162     C      0.498174900000     0.611712495000     0.981957225000    -0.182116   
C162     C      0.998174900000     0.111712495000     0.481957225000    -0.182116   
C162     C      0.998174900000     0.111712495000     0.981957225000    -0.182116   
C162     C      0.998174900000     0.611712495000     0.481957225000    -0.182116   
C162     C      0.998174900000     0.611712495000     0.981957225000    -0.182116   
C163     C      0.483199835000     0.114730200000     0.003081560000    -0.172493   
C163     C      0.483199835000     0.114730200000     0.503081560000    -0.172493   
C163     C      0.483199835000     0.614730200000     0.003081560000    -0.172493   
C163     C      0.483199835000     0.614730200000     0.503081560000    -0.172493   
C163     C      0.983199835000     0.114730200000     0.003081560000    -0.172493   
C163     C      0.983199835000     0.114730200000     0.503081560000    -0.172493   
C163     C      0.983199835000     0.614730200000     0.003081560000    -0.172493   
C163     C      0.983199835000     0.614730200000     0.503081560000    -0.172493   
C164     C      0.435157200000     0.238721250000     0.145712825000     0.111465   
C164     C      0.435157200000     0.238721250000     0.645712825000     0.111465   
C164     C      0.435157200000     0.738721250000     0.145712825000     0.111465   
C164     C      0.435157200000     0.738721250000     0.645712825000     0.111465   
C164     C      0.935157200000     0.238721250000     0.145712825000     0.111465   
C164     C      0.935157200000     0.238721250000     0.645712825000     0.111465   
C164     C      0.935157200000     0.738721250000     0.145712825000     0.111465   
C164     C      0.935157200000     0.738721250000     0.645712825000     0.111465   
C165     C      0.471063750000     0.320112850000     0.081517920000     0.085415   
C165     C      0.471063750000     0.320112850000     0.581517920000     0.085415   
C165     C      0.471063750000     0.820112850000     0.081517920000     0.085415   
C165     C      0.471063750000     0.820112850000     0.581517920000     0.085415   
C165     C      0.971063750000     0.320112850000     0.081517920000     0.085415   
C165     C      0.971063750000     0.320112850000     0.581517920000     0.085415   
C165     C      0.971063750000     0.820112850000     0.081517920000     0.085415   
C165     C      0.971063750000     0.820112850000     0.581517920000     0.085415   
C166     C      0.453512820000     0.252437700000     0.131620390000    -0.119956   
C166     C      0.453512820000     0.252437700000     0.631620390000    -0.119956   
C166     C      0.453512820000     0.752437700000     0.131620390000    -0.119956   
C166     C      0.453512820000     0.752437700000     0.631620390000    -0.119956   
C166     C      0.953512820000     0.252437700000     0.131620390000    -0.119956   
C166     C      0.953512820000     0.252437700000     0.631620390000    -0.119956   
C166     C      0.953512820000     0.752437700000     0.131620390000    -0.119956   
C166     C      0.953512820000     0.752437700000     0.631620390000    -0.119956   
C167     C      0.452724515000     0.306446580000     0.095652000000     0.330927   
C167     C      0.452724515000     0.306446580000     0.595652000000     0.330927   
C167     C      0.452724515000     0.806446580000     0.095652000000     0.330927   
C167     C      0.452724515000     0.806446580000     0.595652000000     0.330927   
C167     C      0.952724515000     0.306446580000     0.095652000000     0.330927   
C167     C      0.952724515000     0.306446580000     0.595652000000     0.330927   
C167     C      0.952724515000     0.806446580000     0.095652000000     0.330927   
C167     C      0.952724515000     0.806446580000     0.595652000000     0.330927   
C168     C      0.444536400000     0.274119600000     0.122200235000    -0.023952   
C168     C      0.444536400000     0.274119600000     0.622200235000    -0.023952   
C168     C      0.444536400000     0.774119600000     0.122200235000    -0.023952   
C168     C      0.444536400000     0.774119600000     0.622200235000    -0.023952   
C168     C      0.944536400000     0.274119600000     0.122200235000    -0.023952   
C168     C      0.944536400000     0.274119600000     0.622200235000    -0.023952   
C168     C      0.944536400000     0.774119600000     0.122200235000    -0.023952   
C168     C      0.944536400000     0.774119600000     0.622200235000    -0.023952   
C169     C      0.461654000000     0.284718350000     0.105017625000    -0.165319   
C169     C      0.461654000000     0.284718350000     0.605017625000    -0.165319   
C169     C      0.461654000000     0.784718350000     0.105017625000    -0.165319   
C169     C      0.461654000000     0.784718350000     0.605017625000    -0.165319   
C169     C      0.961654000000     0.284718350000     0.105017625000    -0.165319   
C169     C      0.961654000000     0.284718350000     0.605017625000    -0.165319   
C169     C      0.961654000000     0.784718350000     0.105017625000    -0.165319   
C169     C      0.961654000000     0.784718350000     0.605017625000    -0.165319   
C170     C      0.020645780000     0.314855280000     0.002917530000     0.042332   
C170     C      0.020645780000     0.314855280000     0.502917530000     0.042332   
C170     C      0.020645780000     0.814855280000     0.002917530000     0.042332   
C170     C      0.020645780000     0.814855280000     0.502917530000     0.042332   
C170     C      0.520645780000     0.314855280000     0.002917530000     0.042332   
C170     C      0.520645780000     0.314855280000     0.502917530000     0.042332   
C170     C      0.520645780000     0.814855280000     0.002917530000     0.042332   
C170     C      0.520645780000     0.814855280000     0.502917530000     0.042332   
C171     C      0.117637090000     0.250821450000     0.462584000000     0.315058   
C171     C      0.117637090000     0.250821450000     0.962584000000     0.315058   
C171     C      0.117637090000     0.750821450000     0.462584000000     0.315058   
C171     C      0.117637090000     0.750821450000     0.962584000000     0.315058   
C171     C      0.617637090000     0.250821450000     0.462584000000     0.315058   
C171     C      0.617637090000     0.250821450000     0.962584000000     0.315058   
C171     C      0.617637090000     0.750821450000     0.462584000000     0.315058   
C171     C      0.617637090000     0.750821450000     0.962584000000     0.315058   
C172     C      0.035081245000     0.297194630000     0.488569250000     0.256128   
C172     C      0.035081245000     0.297194630000     0.988569250000     0.256128   
C172     C      0.035081245000     0.797194630000     0.488569250000     0.256128   
C172     C      0.035081245000     0.797194630000     0.988569250000     0.256128   
C172     C      0.535081245000     0.297194630000     0.488569250000     0.256128   
C172     C      0.535081245000     0.297194630000     0.988569250000     0.256128   
C172     C      0.535081245000     0.797194630000     0.488569250000     0.256128   
C172     C      0.535081245000     0.797194630000     0.988569250000     0.256128   
C173     C      0.103334420000     0.271111280000     0.474235650000     0.027382   
C173     C      0.103334420000     0.271111280000     0.974235650000     0.027382   
C173     C      0.103334420000     0.771111280000     0.474235650000     0.027382   
C173     C      0.103334420000     0.771111280000     0.974235650000     0.027382   
C173     C      0.603334420000     0.271111280000     0.474235650000     0.027382   
C173     C      0.603334420000     0.271111280000     0.974235650000     0.027382   
C173     C      0.603334420000     0.771111280000     0.474235650000     0.027382   
C173     C      0.603334420000     0.771111280000     0.974235650000     0.027382   
C174     C      0.062643065000     0.298958400000     0.482834800000    -0.035529   
C174     C      0.062643065000     0.298958400000     0.982834800000    -0.035529   
C174     C      0.062643065000     0.798958400000     0.482834800000    -0.035529   
C174     C      0.062643065000     0.798958400000     0.982834800000    -0.035529   
C174     C      0.562643065000     0.298958400000     0.482834800000    -0.035529   
C174     C      0.562643065000     0.298958400000     0.982834800000    -0.035529   
C174     C      0.562643065000     0.798958400000     0.482834800000    -0.035529   
C174     C      0.562643065000     0.798958400000     0.982834800000    -0.035529   
C175     C      0.076607205000     0.280048500000     0.469275250000     0.021048   
C175     C      0.076607205000     0.280048500000     0.969275250000     0.021048   
C175     C      0.076607205000     0.780048500000     0.469275250000     0.021048   
C175     C      0.076607205000     0.780048500000     0.969275250000     0.021048   
C175     C      0.576607205000     0.280048500000     0.469275250000     0.021048   
C175     C      0.576607205000     0.280048500000     0.969275250000     0.021048   
C175     C      0.576607205000     0.780048500000     0.469275250000     0.021048   
C175     C      0.576607205000     0.780048500000     0.969275250000     0.021048   
C176     C      0.051688260000     0.406118335000     0.097613250000    -0.065244   
C176     C      0.051688260000     0.406118335000     0.597613250000    -0.065244   
C176     C      0.051688260000     0.906118335000     0.097613250000    -0.065244   
C176     C      0.051688260000     0.906118335000     0.597613250000    -0.065244   
C176     C      0.551688260000     0.406118335000     0.097613250000    -0.065244   
C176     C      0.551688260000     0.406118335000     0.597613250000    -0.065244   
C176     C      0.551688260000     0.906118335000     0.097613250000    -0.065244   
C176     C      0.551688260000     0.906118335000     0.597613250000    -0.065244   
C177     C      0.118927405000     0.415984750000     0.152931735000     0.035915   
C177     C      0.118927405000     0.415984750000     0.652931735000     0.035915   
C177     C      0.118927405000     0.915984750000     0.152931735000     0.035915   
C177     C      0.118927405000     0.915984750000     0.652931735000     0.035915   
C177     C      0.618927405000     0.415984750000     0.152931735000     0.035915   
C177     C      0.618927405000     0.415984750000     0.652931735000     0.035915   
C177     C      0.618927405000     0.915984750000     0.152931735000     0.035915   
C177     C      0.618927405000     0.915984750000     0.652931735000     0.035915   
C178     C      0.077071785000     0.396352200000     0.104758800000    -0.067682   
C178     C      0.077071785000     0.396352200000     0.604758800000    -0.067682   
C178     C      0.077071785000     0.896352200000     0.104758800000    -0.067682   
C178     C      0.077071785000     0.896352200000     0.604758800000    -0.067682   
C178     C      0.577071785000     0.396352200000     0.104758800000    -0.067682   
C178     C      0.577071785000     0.396352200000     0.604758800000    -0.067682   
C178     C      0.577071785000     0.896352200000     0.104758800000    -0.067682   
C178     C      0.577071785000     0.896352200000     0.604758800000    -0.067682   
C179     C      0.103687920000     0.400754420000     0.137981860000     0.051512   
C179     C      0.103687920000     0.400754420000     0.637981860000     0.051512   
C179     C      0.103687920000     0.900754420000     0.137981860000     0.051512   
C179     C      0.103687920000     0.900754420000     0.637981860000     0.051512   
C179     C      0.603687920000     0.400754420000     0.137981860000     0.051512   
C179     C      0.603687920000     0.400754420000     0.637981860000     0.051512   
C179     C      0.603687920000     0.900754420000     0.137981860000     0.051512   
C179     C      0.603687920000     0.900754420000     0.637981860000     0.051512   
C180     C      0.092108435000     0.410802700000     0.120482810000     0.041246   
C180     C      0.092108435000     0.410802700000     0.620482810000     0.041246   
C180     C      0.092108435000     0.910802700000     0.120482810000     0.041246   
C180     C      0.092108435000     0.910802700000     0.620482810000     0.041246   
C180     C      0.592108435000     0.410802700000     0.120482810000     0.041246   
C180     C      0.592108435000     0.410802700000     0.620482810000     0.041246   
C180     C      0.592108435000     0.910802700000     0.120482810000     0.041246   
C180     C      0.592108435000     0.910802700000     0.620482810000     0.041246   
C181     C      0.033428425000     0.393254430000     0.083044425000    -0.06319    
C181     C      0.033428425000     0.393254430000     0.583044425000    -0.06319    
C181     C      0.033428425000     0.893254430000     0.083044425000    -0.06319    
C181     C      0.033428425000     0.893254430000     0.583044425000    -0.06319    
C181     C      0.533428425000     0.393254430000     0.083044425000    -0.06319    
C181     C      0.533428425000     0.393254430000     0.583044425000    -0.06319    
C181     C      0.533428425000     0.893254430000     0.083044425000    -0.06319    
C181     C      0.533428425000     0.893254430000     0.583044425000    -0.06319    
C182     C      0.183322715000     0.418789270000     0.168250620000    -0.083076   
C182     C      0.183322715000     0.418789270000     0.668250620000    -0.083076   
C182     C      0.183322715000     0.918789270000     0.168250620000    -0.083076   
C182     C      0.183322715000     0.918789270000     0.668250620000    -0.083076   
C182     C      0.683322715000     0.418789270000     0.168250620000    -0.083076   
C182     C      0.683322715000     0.418789270000     0.668250620000    -0.083076   
C182     C      0.683322715000     0.918789270000     0.168250620000    -0.083076   
C182     C      0.683322715000     0.918789270000     0.668250620000    -0.083076   
C183     C      0.256057100000     0.315879450000     0.167558225000     0.233207   
C183     C      0.256057100000     0.315879450000     0.667558225000     0.233207   
C183     C      0.256057100000     0.815879450000     0.167558225000     0.233207   
C183     C      0.256057100000     0.815879450000     0.667558225000     0.233207   
C183     C      0.756057100000     0.315879450000     0.167558225000     0.233207   
C183     C      0.756057100000     0.315879450000     0.667558225000     0.233207   
C183     C      0.756057100000     0.815879450000     0.167558225000     0.233207   
C183     C      0.756057100000     0.815879450000     0.667558225000     0.233207   
C184     C      0.283858550000     0.320252270000     0.175093550000     0.025306   
C184     C      0.283858550000     0.320252270000     0.675093550000     0.025306   
C184     C      0.283858550000     0.820252270000     0.175093550000     0.025306   
C184     C      0.283858550000     0.820252270000     0.675093550000     0.025306   
C184     C      0.783858550000     0.320252270000     0.175093550000     0.025306   
C184     C      0.783858550000     0.320252270000     0.675093550000     0.025306   
C184     C      0.783858550000     0.820252270000     0.175093550000     0.025306   
C184     C      0.783858550000     0.820252270000     0.675093550000     0.025306   
C185     C      0.290714600000     0.344425530000     0.180768385000    -0.037446   
C185     C      0.290714600000     0.344425530000     0.680768385000    -0.037446   
C185     C      0.290714600000     0.844425530000     0.180768385000    -0.037446   
C185     C      0.290714600000     0.844425530000     0.680768385000    -0.037446   
C185     C      0.790714600000     0.344425530000     0.180768385000    -0.037446   
C185     C      0.790714600000     0.344425530000     0.680768385000    -0.037446   
C185     C      0.790714600000     0.844425530000     0.180768385000    -0.037446   
C185     C      0.790714600000     0.844425530000     0.680768385000    -0.037446   
C186     C      0.269651850000     0.363851750000     0.179307940000    -0.012097   
C186     C      0.269651850000     0.363851750000     0.679307940000    -0.012097   
C186     C      0.269651850000     0.863851750000     0.179307940000    -0.012097   
C186     C      0.269651850000     0.863851750000     0.679307940000    -0.012097   
C186     C      0.769651850000     0.363851750000     0.179307940000    -0.012097   
C186     C      0.769651850000     0.363851750000     0.679307940000    -0.012097   
C186     C      0.769651850000     0.863851750000     0.179307940000    -0.012097   
C186     C      0.769651850000     0.863851750000     0.679307940000    -0.012097   
C187     C      0.242244050000     0.359889715000     0.171646090000    -0.033833   
C187     C      0.242244050000     0.359889715000     0.671646090000    -0.033833   
C187     C      0.242244050000     0.859889715000     0.171646090000    -0.033833   
C187     C      0.242244050000     0.859889715000     0.671646090000    -0.033833   
C187     C      0.742244050000     0.359889715000     0.171646090000    -0.033833   
C187     C      0.742244050000     0.359889715000     0.671646090000    -0.033833   
C187     C      0.742244050000     0.859889715000     0.171646090000    -0.033833   
C187     C      0.742244050000     0.859889715000     0.671646090000    -0.033833   
C188     C      0.235259965000     0.335955500000     0.165169580000    -0.017135   
C188     C      0.235259965000     0.335955500000     0.665169580000    -0.017135   
C188     C      0.235259965000     0.835955500000     0.165169580000    -0.017135   
C188     C      0.235259965000     0.835955500000     0.665169580000    -0.017135   
C188     C      0.735259965000     0.335955500000     0.165169580000    -0.017135   
C188     C      0.735259965000     0.335955500000     0.665169580000    -0.017135   
C188     C      0.735259965000     0.835955500000     0.165169580000    -0.017135   
C188     C      0.735259965000     0.835955500000     0.665169580000    -0.017135   
C189     C      0.305014730000     0.299714150000     0.177641810000    -0.040363   
C189     C      0.305014730000     0.299714150000     0.677641810000    -0.040363   
C189     C      0.305014730000     0.799714150000     0.177641810000    -0.040363   
C189     C      0.305014730000     0.799714150000     0.677641810000    -0.040363   
C189     C      0.805014730000     0.299714150000     0.177641810000    -0.040363   
C189     C      0.805014730000     0.299714150000     0.677641810000    -0.040363   
C189     C      0.805014730000     0.799714150000     0.177641810000    -0.040363   
C189     C      0.805014730000     0.799714150000     0.677641810000    -0.040363   
C190     C      0.221609580000     0.380887000000     0.170725940000     0.015434   
C190     C      0.221609580000     0.380887000000     0.670725940000     0.015434   
C190     C      0.221609580000     0.880887000000     0.170725940000     0.015434   
C190     C      0.221609580000     0.880887000000     0.670725940000     0.015434   
C190     C      0.721609580000     0.380887000000     0.170725940000     0.015434   
C190     C      0.721609580000     0.380887000000     0.670725940000     0.015434   
C190     C      0.721609580000     0.880887000000     0.170725940000     0.015434   
C190     C      0.721609580000     0.880887000000     0.670725940000     0.015434   
C191     C      0.204269515000     0.398317750000     0.169753240000    -0.040894   
C191     C      0.204269515000     0.398317750000     0.669753240000    -0.040894   
C191     C      0.204269515000     0.898317750000     0.169753240000    -0.040894   
C191     C      0.204269515000     0.898317750000     0.669753240000    -0.040894   
C191     C      0.704269515000     0.398317750000     0.169753240000    -0.040894   
C191     C      0.704269515000     0.398317750000     0.669753240000    -0.040894   
C191     C      0.704269515000     0.898317750000     0.169753240000    -0.040894   
C191     C      0.704269515000     0.898317750000     0.669753240000    -0.040894   
C192     C      0.322578300000     0.282573100000     0.179414540000    -0.015746   
C192     C      0.322578300000     0.282573100000     0.679414540000    -0.015746   
C192     C      0.322578300000     0.782573100000     0.179414540000    -0.015746   
C192     C      0.322578300000     0.782573100000     0.679414540000    -0.015746   
C192     C      0.822578300000     0.282573100000     0.179414540000    -0.015746   
C192     C      0.822578300000     0.282573100000     0.679414540000    -0.015746   
C192     C      0.822578300000     0.782573100000     0.179414540000    -0.015746   
C192     C      0.822578300000     0.782573100000     0.679414540000    -0.015746   
C193     C      0.343513700000     0.262164265000     0.181167335000    -0.034686   
C193     C      0.343513700000     0.262164265000     0.681167335000    -0.034686   
C193     C      0.343513700000     0.762164265000     0.181167335000    -0.034686   
C193     C      0.343513700000     0.762164265000     0.681167335000    -0.034686   
C193     C      0.843513700000     0.262164265000     0.181167335000    -0.034686   
C193     C      0.843513700000     0.262164265000     0.681167335000    -0.034686   
C193     C      0.843513700000     0.762164265000     0.181167335000    -0.034686   
C193     C      0.843513700000     0.762164265000     0.681167335000    -0.034686   
C194     C      0.248833520000     0.290083150000     0.163088200000    -0.017186   
C194     C      0.248833520000     0.290083150000     0.663088200000    -0.017186   
C194     C      0.248833520000     0.790083150000     0.163088200000    -0.017186   
C194     C      0.248833520000     0.790083150000     0.663088200000    -0.017186   
C194     C      0.748833520000     0.290083150000     0.163088200000    -0.017186   
C194     C      0.748833520000     0.290083150000     0.663088200000    -0.017186   
C194     C      0.748833520000     0.790083150000     0.163088200000    -0.017186   
C194     C      0.748833520000     0.790083150000     0.663088200000    -0.017186   
C195     C      0.230792510000     0.277940900000     0.176667735000    -0.044973   
C195     C      0.230792510000     0.277940900000     0.676667735000    -0.044973   
C195     C      0.230792510000     0.777940900000     0.176667735000    -0.044973   
C195     C      0.230792510000     0.777940900000     0.676667735000    -0.044973   
C195     C      0.730792510000     0.277940900000     0.176667735000    -0.044973   
C195     C      0.730792510000     0.277940900000     0.676667735000    -0.044973   
C195     C      0.730792510000     0.777940900000     0.176667735000    -0.044973   
C195     C      0.730792510000     0.777940900000     0.676667735000    -0.044973   
C196     C      0.224608960000     0.253387930000     0.172779950000     0.240383   
C196     C      0.224608960000     0.253387930000     0.672779950000     0.240383   
C196     C      0.224608960000     0.753387930000     0.172779950000     0.240383   
C196     C      0.224608960000     0.753387930000     0.672779950000     0.240383   
C196     C      0.724608960000     0.253387930000     0.172779950000     0.240383   
C196     C      0.724608960000     0.253387930000     0.672779950000     0.240383   
C196     C      0.724608960000     0.753387930000     0.172779950000     0.240383   
C196     C      0.724608960000     0.753387930000     0.672779950000     0.240383   
C197     C      0.236504675000     0.240798100000     0.155415980000     0.110943   
C197     C      0.236504675000     0.240798100000     0.655415980000     0.110943   
C197     C      0.236504675000     0.740798100000     0.155415980000     0.110943   
C197     C      0.236504675000     0.740798100000     0.655415980000     0.110943   
C197     C      0.736504675000     0.240798100000     0.155415980000     0.110943   
C197     C      0.736504675000     0.240798100000     0.655415980000     0.110943   
C197     C      0.736504675000     0.740798100000     0.155415980000     0.110943   
C197     C      0.736504675000     0.740798100000     0.655415980000     0.110943   
C198     C      0.254592550000     0.252745630000     0.141893340000    -0.084703   
C198     C      0.254592550000     0.252745630000     0.641893340000    -0.084703   
C198     C      0.254592550000     0.752745630000     0.141893340000    -0.084703   
C198     C      0.254592550000     0.752745630000     0.641893340000    -0.084703   
C198     C      0.754592550000     0.252745630000     0.141893340000    -0.084703   
C198     C      0.754592550000     0.252745630000     0.641893340000    -0.084703   
C198     C      0.754592550000     0.752745630000     0.141893340000    -0.084703   
C198     C      0.754592550000     0.752745630000     0.641893340000    -0.084703   
C199     C      0.260779350000     0.277314635000     0.145691800000    -0.119535   
C199     C      0.260779350000     0.277314635000     0.645691800000    -0.119535   
C199     C      0.260779350000     0.777314635000     0.145691800000    -0.119535   
C199     C      0.260779350000     0.777314635000     0.645691800000    -0.119535   
C199     C      0.760779350000     0.277314635000     0.145691800000    -0.119535   
C199     C      0.760779350000     0.277314635000     0.645691800000    -0.119535   
C199     C      0.760779350000     0.777314635000     0.145691800000    -0.119535   
C199     C      0.760779350000     0.777314635000     0.645691800000    -0.119535   
C200     C      0.319625550000     0.349841550000     0.188623850000    -0.015304   
C200     C      0.319625550000     0.349841550000     0.688623850000    -0.015304   
C200     C      0.319625550000     0.849841550000     0.188623850000    -0.015304   
C200     C      0.319625550000     0.849841550000     0.688623850000    -0.015304   
C200     C      0.819625550000     0.349841550000     0.188623850000    -0.015304   
C200     C      0.819625550000     0.349841550000     0.688623850000    -0.015304   
C200     C      0.819625550000     0.849841550000     0.188623850000    -0.015304   
C200     C      0.819625550000     0.849841550000     0.688623850000    -0.015304   
C201     C      0.344133700000     0.343883700000     0.176470400000    -0.003808   
C201     C      0.344133700000     0.343883700000     0.676470400000    -0.003808   
C201     C      0.344133700000     0.843883700000     0.176470400000    -0.003808   
C201     C      0.344133700000     0.843883700000     0.676470400000    -0.003808   
C201     C      0.844133700000     0.343883700000     0.176470400000    -0.003808   
C201     C      0.844133700000     0.343883700000     0.676470400000    -0.003808   
C201     C      0.844133700000     0.843883700000     0.176470400000    -0.003808   
C201     C      0.844133700000     0.843883700000     0.676470400000    -0.003808   
C202     C      0.371322335000     0.348943850000     0.183974875000     0.339356   
C202     C      0.371322335000     0.348943850000     0.683974875000     0.339356   
C202     C      0.371322335000     0.848943850000     0.183974875000     0.339356   
C202     C      0.371322335000     0.848943850000     0.683974875000     0.339356   
C202     C      0.871322335000     0.348943850000     0.183974875000     0.339356   
C202     C      0.871322335000     0.348943850000     0.683974875000     0.339356   
C202     C      0.871322335000     0.848943850000     0.183974875000     0.339356   
C202     C      0.871322335000     0.848943850000     0.683974875000     0.339356   
C203     C      0.374255625000     0.360142765000     0.203560850000     0.341039   
C203     C      0.374255625000     0.360142765000     0.703560850000     0.341039   
C203     C      0.374255625000     0.860142765000     0.203560850000     0.341039   
C203     C      0.374255625000     0.860142765000     0.703560850000     0.341039   
C203     C      0.874255625000     0.360142765000     0.203560850000     0.341039   
C203     C      0.874255625000     0.360142765000     0.703560850000     0.341039   
C203     C      0.874255625000     0.860142765000     0.203560850000     0.341039   
C203     C      0.874255625000     0.860142765000     0.703560850000     0.341039   
C204     C      0.350002550000     0.366312450000     0.215681135000    -0.163892   
C204     C      0.350002550000     0.366312450000     0.715681135000    -0.163892   
C204     C      0.350002550000     0.866312450000     0.215681135000    -0.163892   
C204     C      0.350002550000     0.866312450000     0.715681135000    -0.163892   
C204     C      0.850002550000     0.366312450000     0.215681135000    -0.163892   
C204     C      0.850002550000     0.366312450000     0.715681135000    -0.163892   
C204     C      0.850002550000     0.866312450000     0.215681135000    -0.163892   
C204     C      0.850002550000     0.866312450000     0.715681135000    -0.163892   
C205     C      0.322769850000     0.361260535000     0.208247485000    -0.101699   
C205     C      0.322769850000     0.361260535000     0.708247485000    -0.101699   
C205     C      0.322769850000     0.861260535000     0.208247485000    -0.101699   
C205     C      0.322769850000     0.861260535000     0.708247485000    -0.101699   
C205     C      0.822769850000     0.361260535000     0.208247485000    -0.101699   
C205     C      0.822769850000     0.361260535000     0.708247485000    -0.101699   
C205     C      0.822769850000     0.861260535000     0.208247485000    -0.101699   
C205     C      0.822769850000     0.861260535000     0.708247485000    -0.101699   
C206     C      0.137802915000     0.171648340000     0.389189630000    -0.004925   
C206     C      0.137802915000     0.171648340000     0.889189630000    -0.004925   
C206     C      0.137802915000     0.671648340000     0.389189630000    -0.004925   
C206     C      0.137802915000     0.671648340000     0.889189630000    -0.004925   
C206     C      0.637802915000     0.171648340000     0.389189630000    -0.004925   
C206     C      0.637802915000     0.171648340000     0.889189630000    -0.004925   
C206     C      0.637802915000     0.671648340000     0.389189630000    -0.004925   
C206     C      0.637802915000     0.671648340000     0.889189630000    -0.004925   
C207     C      0.242342010000     0.135295750000     0.336179450000     0.065573   
C207     C      0.242342010000     0.135295750000     0.836179450000     0.065573   
C207     C      0.242342010000     0.635295750000     0.336179450000     0.065573   
C207     C      0.242342010000     0.635295750000     0.836179450000     0.065573   
C207     C      0.742342010000     0.135295750000     0.336179450000     0.065573   
C207     C      0.742342010000     0.135295750000     0.836179450000     0.065573   
C207     C      0.742342010000     0.635295750000     0.336179450000     0.065573   
C207     C      0.742342010000     0.635295750000     0.836179450000     0.065573   
C208     C      0.214704720000     0.149298565000     0.339390450000    -0.063329   
C208     C      0.214704720000     0.149298565000     0.839390450000    -0.063329   
C208     C      0.214704720000     0.649298565000     0.339390450000    -0.063329   
C208     C      0.214704720000     0.649298565000     0.839390450000    -0.063329   
C208     C      0.714704720000     0.149298565000     0.339390450000    -0.063329   
C208     C      0.714704720000     0.149298565000     0.839390450000    -0.063329   
C208     C      0.714704720000     0.649298565000     0.339390450000    -0.063329   
C208     C      0.714704720000     0.649298565000     0.839390450000    -0.063329   
C209     C      0.158442200000     0.154205290000     0.378793330000    -0.007775   
C209     C      0.158442200000     0.154205290000     0.878793330000    -0.007775   
C209     C      0.158442200000     0.654205290000     0.378793330000    -0.007775   
C209     C      0.158442200000     0.654205290000     0.878793330000    -0.007775   
C209     C      0.658442200000     0.154205290000     0.378793330000    -0.007775   
C209     C      0.658442200000     0.154205290000     0.878793330000    -0.007775   
C209     C      0.658442200000     0.654205290000     0.378793330000    -0.007775   
C209     C      0.658442200000     0.654205290000     0.878793330000    -0.007775   
C210     C      0.202687425000     0.153433175000     0.358393500000    -0.047295   
C210     C      0.202687425000     0.153433175000     0.858393500000    -0.047295   
C210     C      0.202687425000     0.653433175000     0.358393500000    -0.047295   
C210     C      0.202687425000     0.653433175000     0.858393500000    -0.047295   
C210     C      0.702687425000     0.153433175000     0.358393500000    -0.047295   
C210     C      0.702687425000     0.153433175000     0.858393500000    -0.047295   
C210     C      0.702687425000     0.653433175000     0.358393500000    -0.047295   
C210     C      0.702687425000     0.653433175000     0.858393500000    -0.047295   
C211     C      0.171162425000     0.159981850000     0.360781600000    -0.007514   
C211     C      0.171162425000     0.159981850000     0.860781600000    -0.007514   
C211     C      0.171162425000     0.659981850000     0.360781600000    -0.007514   
C211     C      0.171162425000     0.659981850000     0.860781600000    -0.007514   
C211     C      0.671162425000     0.159981850000     0.360781600000    -0.007514   
C211     C      0.671162425000     0.159981850000     0.860781600000    -0.007514   
C211     C      0.671162425000     0.659981850000     0.360781600000    -0.007514   
C211     C      0.671162425000     0.659981850000     0.860781600000    -0.007514   
C212     C      0.323648485000     0.175012320000     0.187118215000    -0.072162   
C212     C      0.323648485000     0.175012320000     0.687118215000    -0.072162   
C212     C      0.323648485000     0.675012320000     0.187118215000    -0.072162   
C212     C      0.323648485000     0.675012320000     0.687118215000    -0.072162   
C212     C      0.823648485000     0.175012320000     0.187118215000    -0.072162   
C212     C      0.823648485000     0.175012320000     0.687118215000    -0.072162   
C212     C      0.823648485000     0.675012320000     0.187118215000    -0.072162   
C212     C      0.823648485000     0.675012320000     0.687118215000    -0.072162   
C213     C      0.318468000000     0.126387950000     0.271982820000     0.024218   
C213     C      0.318468000000     0.126387950000     0.771982820000     0.024218   
C213     C      0.318468000000     0.626387950000     0.271982820000     0.024218   
C213     C      0.318468000000     0.626387950000     0.771982820000     0.024218   
C213     C      0.818468000000     0.126387950000     0.271982820000     0.024218   
C213     C      0.818468000000     0.126387950000     0.771982820000     0.024218   
C213     C      0.818468000000     0.626387950000     0.271982820000     0.024218   
C213     C      0.818468000000     0.626387950000     0.771982820000     0.024218   
C214     C      0.321490800000     0.145201475000     0.256321965000     0.361394   
C214     C      0.321490800000     0.145201475000     0.756321965000     0.361394   
C214     C      0.321490800000     0.645201475000     0.256321965000     0.361394   
C214     C      0.321490800000     0.645201475000     0.756321965000     0.361394   
C214     C      0.821490800000     0.145201475000     0.256321965000     0.361394   
C214     C      0.821490800000     0.145201475000     0.756321965000     0.361394   
C214     C      0.821490800000     0.645201475000     0.256321965000     0.361394   
C214     C      0.821490800000     0.645201475000     0.756321965000     0.361394   
C215     C      0.311397600000     0.156326085000     0.200323075000    -0.234393   
C215     C      0.311397600000     0.156326085000     0.700323075000    -0.234393   
C215     C      0.311397600000     0.656326085000     0.200323075000    -0.234393   
C215     C      0.311397600000     0.656326085000     0.700323075000    -0.234393   
C215     C      0.811397600000     0.156326085000     0.200323075000    -0.234393   
C215     C      0.811397600000     0.156326085000     0.700323075000    -0.234393   
C215     C      0.811397600000     0.656326085000     0.200323075000    -0.234393   
C215     C      0.811397600000     0.656326085000     0.700323075000    -0.234393   
C216     C      0.323274585000     0.153232785000     0.219460250000    -0.031616   
C216     C      0.323274585000     0.153232785000     0.719460250000    -0.031616   
C216     C      0.323274585000     0.653232785000     0.219460250000    -0.031616   
C216     C      0.323274585000     0.653232785000     0.719460250000    -0.031616   
C216     C      0.823274585000     0.153232785000     0.219460250000    -0.031616   
C216     C      0.823274585000     0.153232785000     0.719460250000    -0.031616   
C216     C      0.823274585000     0.653232785000     0.219460250000    -0.031616   
C216     C      0.823274585000     0.653232785000     0.719460250000    -0.031616   
C217     C      0.280521000000     0.153500915000     0.195976465000     0.315731   
C217     C      0.280521000000     0.153500915000     0.695976465000     0.315731   
C217     C      0.280521000000     0.653500915000     0.195976465000     0.315731   
C217     C      0.280521000000     0.653500915000     0.695976465000     0.315731   
C217     C      0.780521000000     0.153500915000     0.195976465000     0.315731   
C217     C      0.780521000000     0.153500915000     0.695976465000     0.315731   
C217     C      0.780521000000     0.653500915000     0.195976465000     0.315731   
C217     C      0.780521000000     0.653500915000     0.695976465000     0.315731   
C218     C      0.259929800000     0.168063355000     0.207423030000     0.21456    
C218     C      0.259929800000     0.168063355000     0.707423030000     0.21456    
C218     C      0.259929800000     0.668063355000     0.207423030000     0.21456    
C218     C      0.259929800000     0.668063355000     0.707423030000     0.21456    
C218     C      0.759929800000     0.168063355000     0.207423030000     0.21456    
C218     C      0.759929800000     0.168063355000     0.707423030000     0.21456    
C218     C      0.759929800000     0.668063355000     0.207423030000     0.21456    
C218     C      0.759929800000     0.668063355000     0.707423030000     0.21456    
C219     C      0.232776510000     0.173978985000     0.198906585000     0.052412   
C219     C      0.232776510000     0.173978985000     0.698906585000     0.052412   
C219     C      0.232776510000     0.673978985000     0.198906585000     0.052412   
C219     C      0.232776510000     0.673978985000     0.698906585000     0.052412   
C219     C      0.732776510000     0.173978985000     0.198906585000     0.052412   
C219     C      0.732776510000     0.173978985000     0.698906585000     0.052412   
C219     C      0.732776510000     0.673978985000     0.198906585000     0.052412   
C219     C      0.732776510000     0.673978985000     0.698906585000     0.052412   
C220     C      0.225722550000     0.165077100000     0.179085330000     0.367261   
C220     C      0.225722550000     0.165077100000     0.679085330000     0.367261   
C220     C      0.225722550000     0.665077100000     0.179085330000     0.367261   
C220     C      0.225722550000     0.665077100000     0.679085330000     0.367261   
C220     C      0.725722550000     0.165077100000     0.179085330000     0.367261   
C220     C      0.725722550000     0.165077100000     0.679085330000     0.367261   
C220     C      0.725722550000     0.665077100000     0.179085330000     0.367261   
C220     C      0.725722550000     0.665077100000     0.679085330000     0.367261   
C221     C      0.245603440000     0.149821415000     0.167978480000     0.281545   
C221     C      0.245603440000     0.149821415000     0.667978480000     0.281545   
C221     C      0.245603440000     0.649821415000     0.167978480000     0.281545   
C221     C      0.245603440000     0.649821415000     0.667978480000     0.281545   
C221     C      0.745603440000     0.149821415000     0.167978480000     0.281545   
C221     C      0.745603440000     0.149821415000     0.667978480000     0.281545   
C221     C      0.745603440000     0.649821415000     0.167978480000     0.281545   
C221     C      0.745603440000     0.649821415000     0.667978480000     0.281545   
C222     C      0.272841450000     0.144044100000     0.176356300000     0.384032   
C222     C      0.272841450000     0.144044100000     0.676356300000     0.384032   
C222     C      0.272841450000     0.644044100000     0.176356300000     0.384032   
C222     C      0.272841450000     0.644044100000     0.676356300000     0.384032   
C222     C      0.772841450000     0.144044100000     0.176356300000     0.384032   
C222     C      0.772841450000     0.144044100000     0.676356300000     0.384032   
C222     C      0.772841450000     0.644044100000     0.176356300000     0.384032   
C222     C      0.772841450000     0.644044100000     0.676356300000     0.384032   
C223     C      0.309666870000     0.142220870000     0.237459850000     0.529099   
C223     C      0.309666870000     0.142220870000     0.737459850000     0.529099   
C223     C      0.309666870000     0.642220870000     0.237459850000     0.529099   
C223     C      0.309666870000     0.642220870000     0.737459850000     0.529099   
C223     C      0.809666870000     0.142220870000     0.237459850000     0.529099   
C223     C      0.809666870000     0.142220870000     0.737459850000     0.529099   
C223     C      0.809666870000     0.642220870000     0.237459850000     0.529099   
C223     C      0.809666870000     0.642220870000     0.737459850000     0.529099   
C224     C      0.272401900000     0.064650885000     0.342928470000     0.362356   
C224     C      0.272401900000     0.064650885000     0.842928470000     0.362356   
C224     C      0.272401900000     0.564650885000     0.342928470000     0.362356   
C224     C      0.272401900000     0.564650885000     0.842928470000     0.362356   
C224     C      0.772401900000     0.064650885000     0.342928470000     0.362356   
C224     C      0.772401900000     0.064650885000     0.842928470000     0.362356   
C224     C      0.772401900000     0.564650885000     0.342928470000     0.362356   
C224     C      0.772401900000     0.564650885000     0.842928470000     0.362356   
C225     C      0.283553800000     0.047109680000     0.358546650000     0.371303   
C225     C      0.283553800000     0.047109680000     0.858546650000     0.371303   
C225     C      0.283553800000     0.547109680000     0.358546650000     0.371303   
C225     C      0.283553800000     0.547109680000     0.858546650000     0.371303   
C225     C      0.783553800000     0.047109680000     0.358546650000     0.371303   
C225     C      0.783553800000     0.047109680000     0.858546650000     0.371303   
C225     C      0.783553800000     0.547109680000     0.358546650000     0.371303   
C225     C      0.783553800000     0.547109680000     0.858546650000     0.371303   
C226     C      0.350754700000     0.013875785000     0.372431600000     0.362393   
C226     C      0.350754700000     0.013875785000     0.872431600000     0.362393   
C226     C      0.350754700000     0.513875785000     0.372431600000     0.362393   
C226     C      0.350754700000     0.513875785000     0.872431600000     0.362393   
C226     C      0.850754700000     0.013875785000     0.372431600000     0.362393   
C226     C      0.850754700000     0.013875785000     0.872431600000     0.362393   
C226     C      0.850754700000     0.513875785000     0.372431600000     0.362393   
C226     C      0.850754700000     0.513875785000     0.872431600000     0.362393   
C227     C      0.309872775000     0.036383135000     0.356494000000     0.365863   
C227     C      0.309872775000     0.036383135000     0.856494000000     0.365863   
C227     C      0.309872775000     0.536383135000     0.356494000000     0.365863   
C227     C      0.309872775000     0.536383135000     0.856494000000     0.365863   
C227     C      0.809872775000     0.036383135000     0.356494000000     0.365863   
C227     C      0.809872775000     0.036383135000     0.856494000000     0.365863   
C227     C      0.809872775000     0.536383135000     0.356494000000     0.365863   
C227     C      0.809872775000     0.536383135000     0.856494000000     0.365863   
C228     C      0.324437080000     0.024599105000     0.374483525000    -0.09629    
C228     C      0.324437080000     0.024599105000     0.874483525000    -0.09629    
C228     C      0.324437080000     0.524599105000     0.374483525000    -0.09629    
C228     C      0.324437080000     0.524599105000     0.874483525000    -0.09629    
C228     C      0.824437080000     0.024599105000     0.374483525000    -0.09629    
C228     C      0.824437080000     0.024599105000     0.874483525000    -0.09629    
C228     C      0.824437080000     0.524599105000     0.374483525000    -0.09629    
C228     C      0.824437080000     0.524599105000     0.874483525000    -0.09629    
C229     C      0.361908735000     0.496333050000     0.388048100000     0.85154    
C229     C      0.361908735000     0.496333050000     0.888048100000     0.85154    
C229     C      0.361908735000     0.996333050000     0.388048100000     0.85154    
C229     C      0.361908735000     0.996333050000     0.888048100000     0.85154    
C229     C      0.861908735000     0.496333050000     0.388048100000     0.85154    
C229     C      0.861908735000     0.496333050000     0.888048100000     0.85154    
C229     C      0.861908735000     0.996333050000     0.388048100000     0.85154    
C229     C      0.861908735000     0.996333050000     0.888048100000     0.85154    
S230     S      0.388998630000     0.408475300000     0.485580385000    -0.037459   
S230     S      0.388998630000     0.408475300000     0.985580385000    -0.037459   
S230     S      0.388998630000     0.908475300000     0.485580385000    -0.037459   
S230     S      0.388998630000     0.908475300000     0.985580385000    -0.037459   
S230     S      0.888998630000     0.408475300000     0.485580385000    -0.037459   
S230     S      0.888998630000     0.408475300000     0.985580385000    -0.037459   
S230     S      0.888998630000     0.908475300000     0.485580385000    -0.037459   
S230     S      0.888998630000     0.908475300000     0.985580385000    -0.037459   
S231     S      0.252447450000     0.002818975000     0.253734825000    -0.013446   
S231     S      0.252447450000     0.002818975000     0.753734825000    -0.013446   
S231     S      0.252447450000     0.502818975000     0.253734825000    -0.013446   
S231     S      0.252447450000     0.502818975000     0.753734825000    -0.013446   
S231     S      0.752447450000     0.002818975000     0.253734825000    -0.013446   
S231     S      0.752447450000     0.002818975000     0.753734825000    -0.013446   
S231     S      0.752447450000     0.502818975000     0.253734825000    -0.013446   
S231     S      0.752447450000     0.502818975000     0.753734825000    -0.013446   
S232     S      0.236679880000     0.004060115000     0.200096710000    -0.014536   
S232     S      0.236679880000     0.004060115000     0.700096710000    -0.014536   
S232     S      0.236679880000     0.504060115000     0.200096710000    -0.014536   
S232     S      0.236679880000     0.504060115000     0.700096710000    -0.014536   
S232     S      0.736679880000     0.004060115000     0.200096710000    -0.014536   
S232     S      0.736679880000     0.004060115000     0.700096710000    -0.014536   
S232     S      0.736679880000     0.504060115000     0.200096710000    -0.014536   
S232     S      0.736679880000     0.504060115000     0.700096710000    -0.014536   
S233     S      0.498304900000     0.038223515000     0.153323680000    -0.0176     
S233     S      0.498304900000     0.038223515000     0.653323680000    -0.0176     
S233     S      0.498304900000     0.538223515000     0.153323680000    -0.0176     
S233     S      0.498304900000     0.538223515000     0.653323680000    -0.0176     
S233     S      0.998304900000     0.038223515000     0.153323680000    -0.0176     
S233     S      0.998304900000     0.038223515000     0.653323680000    -0.0176     
S233     S      0.998304900000     0.538223515000     0.153323680000    -0.0176     
S233     S      0.998304900000     0.538223515000     0.653323680000    -0.0176     
S234     S      0.092545790000     0.367332280000     0.095885650000    -0.312185   
S234     S      0.092545790000     0.367332280000     0.595885650000    -0.312185   
S234     S      0.092545790000     0.867332280000     0.095885650000    -0.312185   
S234     S      0.092545790000     0.867332280000     0.595885650000    -0.312185   
S234     S      0.592545790000     0.367332280000     0.095885650000    -0.312185   
S234     S      0.592545790000     0.367332280000     0.595885650000    -0.312185   
S234     S      0.592545790000     0.867332280000     0.095885650000    -0.312185   
S234     S      0.592545790000     0.867332280000     0.595885650000    -0.312185   
S235     S      0.200609175000     0.331488500000     0.154364275000    -0.187261   
S235     S      0.200609175000     0.331488500000     0.654364275000    -0.187261   
S235     S      0.200609175000     0.831488500000     0.154364275000    -0.187261   
S235     S      0.200609175000     0.831488500000     0.654364275000    -0.187261   
S235     S      0.700609175000     0.331488500000     0.154364275000    -0.187261   
S235     S      0.700609175000     0.331488500000     0.654364275000    -0.187261   
S235     S      0.700609175000     0.831488500000     0.154364275000    -0.187261   
S235     S      0.700609175000     0.831488500000     0.654364275000    -0.187261   
S236     S      0.150554670000     0.177031680000     0.341611200000    -0.290746   
S236     S      0.150554670000     0.177031680000     0.841611200000    -0.290746   
S236     S      0.150554670000     0.677031680000     0.341611200000    -0.290746   
S236     S      0.150554670000     0.677031680000     0.841611200000    -0.290746   
S236     S      0.650554670000     0.177031680000     0.341611200000    -0.290746   
S236     S      0.650554670000     0.177031680000     0.841611200000    -0.290746   
S236     S      0.650554670000     0.677031680000     0.341611200000    -0.290746   
S236     S      0.650554670000     0.677031680000     0.841611200000    -0.290746   
S237     S      0.224860040000     0.153196065000     0.381289000000    -0.432597   
S237     S      0.224860040000     0.153196065000     0.881289000000    -0.432597   
S237     S      0.224860040000     0.653196065000     0.381289000000    -0.432597   
S237     S      0.224860040000     0.653196065000     0.881289000000    -0.432597   
S237     S      0.724860040000     0.153196065000     0.381289000000    -0.432597   
S237     S      0.724860040000     0.153196065000     0.881289000000    -0.432597   
S237     S      0.724860040000     0.653196065000     0.381289000000    -0.432597   
S237     S      0.724860040000     0.653196065000     0.881289000000    -0.432597   
N238     N      0.309242650000     0.397193550000     0.470711650000    -0.392634   
N238     N      0.309242650000     0.397193550000     0.970711650000    -0.392634   
N238     N      0.309242650000     0.897193550000     0.470711650000    -0.392634   
N238     N      0.309242650000     0.897193550000     0.970711650000    -0.392634   
N238     N      0.809242650000     0.397193550000     0.470711650000    -0.392634   
N238     N      0.809242650000     0.397193550000     0.970711650000    -0.392634   
N238     N      0.809242650000     0.897193550000     0.470711650000    -0.392634   
N238     N      0.809242650000     0.897193550000     0.970711650000    -0.392634   
N239     N      0.498752115000     0.144615150000     0.435545265000    -0.376185   
N239     N      0.498752115000     0.144615150000     0.935545265000    -0.376185   
N239     N      0.498752115000     0.644615150000     0.435545265000    -0.376185   
N239     N      0.498752115000     0.644615150000     0.935545265000    -0.376185   
N239     N      0.998752115000     0.144615150000     0.435545265000    -0.376185   
N239     N      0.998752115000     0.144615150000     0.935545265000    -0.376185   
N239     N      0.998752115000     0.644615150000     0.435545265000    -0.376185   
N239     N      0.998752115000     0.644615150000     0.935545265000    -0.376185   
N240     N      0.487487850000     0.271298550000     0.098170945000    -0.641648   
N240     N      0.487487850000     0.271298550000     0.598170945000    -0.641648   
N240     N      0.487487850000     0.771298550000     0.098170945000    -0.641648   
N240     N      0.487487850000     0.771298550000     0.598170945000    -0.641648   
N240     N      0.987487850000     0.271298550000     0.098170945000    -0.641648   
N240     N      0.987487850000     0.271298550000     0.598170945000    -0.641648   
N240     N      0.987487850000     0.771298550000     0.098170945000    -0.641648   
N240     N      0.987487850000     0.771298550000     0.598170945000    -0.641648   
N241     N      0.418616600000     0.287475450000     0.128960460000    -0.338642   
N241     N      0.418616600000     0.287475450000     0.628960460000    -0.338642   
N241     N      0.418616600000     0.787475450000     0.128960460000    -0.338642   
N241     N      0.418616600000     0.787475450000     0.628960460000    -0.338642   
N241     N      0.918616600000     0.287475450000     0.128960460000    -0.338642   
N241     N      0.918616600000     0.287475450000     0.628960460000    -0.338642   
N241     N      0.918616600000     0.787475450000     0.128960460000    -0.338642   
N241     N      0.918616600000     0.787475450000     0.628960460000    -0.338642   
N242     N      0.062573410000     0.273015600000     0.450238020000    -0.431835   
N242     N      0.062573410000     0.273015600000     0.950238020000    -0.431835   
N242     N      0.062573410000     0.773015600000     0.450238020000    -0.431835   
N242     N      0.062573410000     0.773015600000     0.950238020000    -0.431835   
N242     N      0.562573410000     0.273015600000     0.450238020000    -0.431835   
N242     N      0.562573410000     0.273015600000     0.950238020000    -0.431835   
N242     N      0.562573410000     0.773015600000     0.450238020000    -0.431835   
N242     N      0.562573410000     0.773015600000     0.950238020000    -0.431835   
N243     N      0.079181450000     0.319008250000     0.489694450000    -0.320689   
N243     N      0.079181450000     0.319008250000     0.989694450000    -0.320689   
N243     N      0.079181450000     0.819008250000     0.489694450000    -0.320689   
N243     N      0.079181450000     0.819008250000     0.989694450000    -0.320689   
N243     N      0.579181450000     0.319008250000     0.489694450000    -0.320689   
N243     N      0.579181450000     0.319008250000     0.989694450000    -0.320689   
N243     N      0.579181450000     0.819008250000     0.489694450000    -0.320689   
N243     N      0.579181450000     0.819008250000     0.989694450000    -0.320689   
O244     O      0.378562550000     0.435244750000     0.484373350000    -0.38814    
O244     O      0.378562550000     0.435244750000     0.984373350000    -0.38814    
O244     O      0.378562550000     0.935244750000     0.484373350000    -0.38814    
O244     O      0.378562550000     0.935244750000     0.984373350000    -0.38814    
O244     O      0.878562550000     0.435244750000     0.484373350000    -0.38814    
O244     O      0.878562550000     0.435244750000     0.984373350000    -0.38814    
O244     O      0.878562550000     0.935244750000     0.484373350000    -0.38814    
O244     O      0.878562550000     0.935244750000     0.984373350000    -0.38814    
O245     O      0.369883350000     0.393270820000     0.472419450000    -0.147973   
O245     O      0.369883350000     0.393270820000     0.972419450000    -0.147973   
O245     O      0.369883350000     0.893270820000     0.472419450000    -0.147973   
O245     O      0.369883350000     0.893270820000     0.972419450000    -0.147973   
O245     O      0.869883350000     0.393270820000     0.472419450000    -0.147973   
O245     O      0.869883350000     0.393270820000     0.972419450000    -0.147973   
O245     O      0.869883350000     0.893270820000     0.472419450000    -0.147973   
O245     O      0.869883350000     0.893270820000     0.972419450000    -0.147973   
O246     O      0.387372950000     0.398853150000     0.010540545000    -0.198757   
O246     O      0.387372950000     0.398853150000     0.510540545000    -0.198757   
O246     O      0.387372950000     0.898853150000     0.010540545000    -0.198757   
O246     O      0.387372950000     0.898853150000     0.510540545000    -0.198757   
O246     O      0.887372950000     0.398853150000     0.010540545000    -0.198757   
O246     O      0.887372950000     0.398853150000     0.510540545000    -0.198757   
O246     O      0.887372950000     0.898853150000     0.010540545000    -0.198757   
O246     O      0.887372950000     0.898853150000     0.510540545000    -0.198757   
O247     O      0.493270220000     0.372510730000     0.012286840000    -0.215534   
O247     O      0.493270220000     0.372510730000     0.512286840000    -0.215534   
O247     O      0.493270220000     0.872510730000     0.012286840000    -0.215534   
O247     O      0.493270220000     0.872510730000     0.512286840000    -0.215534   
O247     O      0.993270220000     0.372510730000     0.012286840000    -0.215534   
O247     O      0.993270220000     0.372510730000     0.512286840000    -0.215534   
O247     O      0.993270220000     0.872510730000     0.012286840000    -0.215534   
O247     O      0.993270220000     0.872510730000     0.512286840000    -0.215534   
O248     O      0.388185300000     0.416776925000     0.437354450000    -0.130805   
O248     O      0.388185300000     0.416776925000     0.937354450000    -0.130805   
O248     O      0.388185300000     0.916776925000     0.437354450000    -0.130805   
O248     O      0.388185300000     0.916776925000     0.937354450000    -0.130805   
O248     O      0.888185300000     0.416776925000     0.437354450000    -0.130805   
O248     O      0.888185300000     0.416776925000     0.937354450000    -0.130805   
O248     O      0.888185300000     0.916776925000     0.437354450000    -0.130805   
O248     O      0.888185300000     0.916776925000     0.937354450000    -0.130805   
O249     O      0.474647150000     0.389422565000     0.041655660000    -0.281273   
O249     O      0.474647150000     0.389422565000     0.541655660000    -0.281273   
O249     O      0.474647150000     0.889422565000     0.041655660000    -0.281273   
O249     O      0.474647150000     0.889422565000     0.541655660000    -0.281273   
O249     O      0.974647150000     0.389422565000     0.041655660000    -0.281273   
O249     O      0.974647150000     0.389422565000     0.541655660000    -0.281273   
O249     O      0.974647150000     0.889422565000     0.041655660000    -0.281273   
O249     O      0.974647150000     0.889422565000     0.541655660000    -0.281273   
O250     O      0.417765915000     0.446834850000     0.435558975000    -0.272808   
O250     O      0.417765915000     0.446834850000     0.935558975000    -0.272808   
O250     O      0.417765915000     0.946834850000     0.435558975000    -0.272808   
O250     O      0.417765915000     0.946834850000     0.935558975000    -0.272808   
O250     O      0.917765915000     0.446834850000     0.435558975000    -0.272808   
O250     O      0.917765915000     0.446834850000     0.935558975000    -0.272808   
O250     O      0.917765915000     0.946834850000     0.435558975000    -0.272808   
O250     O      0.917765915000     0.946834850000     0.935558975000    -0.272808   
O251     O      0.143044350000     0.000906545000     0.201854150000    -0.1187     
O251     O      0.143044350000     0.000906545000     0.701854150000    -0.1187     
O251     O      0.143044350000     0.500906545000     0.201854150000    -0.1187     
O251     O      0.143044350000     0.500906545000     0.701854150000    -0.1187     
O251     O      0.643044350000     0.000906545000     0.201854150000    -0.1187     
O251     O      0.643044350000     0.000906545000     0.701854150000    -0.1187     
O251     O      0.643044350000     0.500906545000     0.201854150000    -0.1187     
O251     O      0.643044350000     0.500906545000     0.701854150000    -0.1187     
O252     O      0.217200040000     0.076396450000     0.272618620000    -0.394154   
O252     O      0.217200040000     0.076396450000     0.772618620000    -0.394154   
O252     O      0.217200040000     0.576396450000     0.272618620000    -0.394154   
O252     O      0.217200040000     0.576396450000     0.772618620000    -0.394154   
O252     O      0.717200040000     0.076396450000     0.272618620000    -0.394154   
O252     O      0.717200040000     0.076396450000     0.772618620000    -0.394154   
O252     O      0.717200040000     0.576396450000     0.272618620000    -0.394154   
O252     O      0.717200040000     0.576396450000     0.772618620000    -0.394154   
O253     O      0.183444725000     0.478983285000     0.195218325000    -0.369417   
O253     O      0.183444725000     0.478983285000     0.695218325000    -0.369417   
O253     O      0.183444725000     0.978983285000     0.195218325000    -0.369417   
O253     O      0.183444725000     0.978983285000     0.695218325000    -0.369417   
O253     O      0.683444725000     0.478983285000     0.195218325000    -0.369417   
O253     O      0.683444725000     0.478983285000     0.695218325000    -0.369417   
O253     O      0.683444725000     0.978983285000     0.195218325000    -0.369417   
O253     O      0.683444725000     0.978983285000     0.695218325000    -0.369417   
O254     O      0.257594900000     0.054467595000     0.265977530000    -0.33331    
O254     O      0.257594900000     0.054467595000     0.765977530000    -0.33331    
O254     O      0.257594900000     0.554467595000     0.265977530000    -0.33331    
O254     O      0.257594900000     0.554467595000     0.765977530000    -0.33331    
O254     O      0.757594900000     0.054467595000     0.265977530000    -0.33331    
O254     O      0.757594900000     0.054467595000     0.765977530000    -0.33331    
O254     O      0.757594900000     0.554467595000     0.265977530000    -0.33331    
O254     O      0.757594900000     0.554467595000     0.765977530000    -0.33331    
O255     O      0.281885600000     0.010536495000     0.248346775000    -0.24842    
O255     O      0.281885600000     0.010536495000     0.748346775000    -0.24842    
O255     O      0.281885600000     0.510536495000     0.248346775000    -0.24842    
O255     O      0.281885600000     0.510536495000     0.748346775000    -0.24842    
O255     O      0.781885600000     0.010536495000     0.248346775000    -0.24842    
O255     O      0.781885600000     0.010536495000     0.748346775000    -0.24842    
O255     O      0.781885600000     0.510536495000     0.248346775000    -0.24842    
O255     O      0.781885600000     0.510536495000     0.748346775000    -0.24842    
O256     O      0.248010350000     0.004986765000     0.277003650000    -0.171313   
O256     O      0.248010350000     0.004986765000     0.777003650000    -0.171313   
O256     O      0.248010350000     0.504986765000     0.277003650000    -0.171313   
O256     O      0.248010350000     0.504986765000     0.777003650000    -0.171313   
O256     O      0.748010350000     0.004986765000     0.277003650000    -0.171313   
O256     O      0.748010350000     0.004986765000     0.777003650000    -0.171313   
O256     O      0.748010350000     0.504986765000     0.277003650000    -0.171313   
O256     O      0.748010350000     0.504986765000     0.777003650000    -0.171313   
O257     O      0.249615760000     0.473194180000     0.246402500000    -0.378995   
O257     O      0.249615760000     0.473194180000     0.746402500000    -0.378995   
O257     O      0.249615760000     0.973194180000     0.246402500000    -0.378995   
O257     O      0.249615760000     0.973194180000     0.746402500000    -0.378995   
O257     O      0.749615760000     0.473194180000     0.246402500000    -0.378995   
O257     O      0.749615760000     0.473194180000     0.746402500000    -0.378995   
O257     O      0.749615760000     0.973194180000     0.246402500000    -0.378995   
O257     O      0.749615760000     0.973194180000     0.746402500000    -0.378995   
O258     O      0.243294015000     0.476547550000     0.199665965000    -0.230243   
O258     O      0.243294015000     0.476547550000     0.699665965000    -0.230243   
O258     O      0.243294015000     0.976547550000     0.199665965000    -0.230243   
O258     O      0.243294015000     0.976547550000     0.699665965000    -0.230243   
O258     O      0.743294015000     0.476547550000     0.199665965000    -0.230243   
O258     O      0.743294015000     0.476547550000     0.699665965000    -0.230243   
O258     O      0.743294015000     0.976547550000     0.199665965000    -0.230243   
O258     O      0.743294015000     0.976547550000     0.699665965000    -0.230243   
O259     O      0.222760410000     0.012086595000     0.179768310000    -0.240083   
O259     O      0.222760410000     0.012086595000     0.679768310000    -0.240083   
O259     O      0.222760410000     0.512086595000     0.179768310000    -0.240083   
O259     O      0.222760410000     0.512086595000     0.679768310000    -0.240083   
O259     O      0.722760410000     0.012086595000     0.179768310000    -0.240083   
O259     O      0.722760410000     0.012086595000     0.679768310000    -0.240083   
O259     O      0.722760410000     0.512086595000     0.179768310000    -0.240083   
O259     O      0.722760410000     0.512086595000     0.679768310000    -0.240083   
O260     O      0.267411085000     0.018351035000     0.203057540000    -0.210584   
O260     O      0.267411085000     0.018351035000     0.703057540000    -0.210584   
O260     O      0.267411085000     0.518351035000     0.203057540000    -0.210584   
O260     O      0.267411085000     0.518351035000     0.703057540000    -0.210584   
O260     O      0.767411085000     0.018351035000     0.203057540000    -0.210584   
O260     O      0.767411085000     0.018351035000     0.703057540000    -0.210584   
O260     O      0.767411085000     0.518351035000     0.203057540000    -0.210584   
O260     O      0.767411085000     0.518351035000     0.703057540000    -0.210584   
O261     O      0.114972160000     0.015028605000     0.191201200000    -0.203201   
O261     O      0.114972160000     0.015028605000     0.691201200000    -0.203201   
O261     O      0.114972160000     0.515028605000     0.191201200000    -0.203201   
O261     O      0.114972160000     0.515028605000     0.691201200000    -0.203201   
O261     O      0.614972160000     0.015028605000     0.191201200000    -0.203201   
O261     O      0.614972160000     0.015028605000     0.691201200000    -0.203201   
O261     O      0.614972160000     0.515028605000     0.191201200000    -0.203201   
O261     O      0.614972160000     0.515028605000     0.691201200000    -0.203201   
O262     O      0.413836630000     0.173953265000     0.182465135000    -0.250122   
O262     O      0.413836630000     0.173953265000     0.682465135000    -0.250122   
O262     O      0.413836630000     0.673953265000     0.182465135000    -0.250122   
O262     O      0.413836630000     0.673953265000     0.682465135000    -0.250122   
O262     O      0.913836630000     0.173953265000     0.182465135000    -0.250122   
O262     O      0.913836630000     0.173953265000     0.682465135000    -0.250122   
O262     O      0.913836630000     0.673953265000     0.182465135000    -0.250122   
O262     O      0.913836630000     0.673953265000     0.682465135000    -0.250122   
O263     O      0.433526850000     0.184318215000     0.151484625000    -0.270591   
O263     O      0.433526850000     0.184318215000     0.651484625000    -0.270591   
O263     O      0.433526850000     0.684318215000     0.151484625000    -0.270591   
O263     O      0.433526850000     0.684318215000     0.651484625000    -0.270591   
O263     O      0.933526850000     0.184318215000     0.151484625000    -0.270591   
O263     O      0.933526850000     0.184318215000     0.651484625000    -0.270591   
O263     O      0.933526850000     0.684318215000     0.151484625000    -0.270591   
O263     O      0.933526850000     0.684318215000     0.651484625000    -0.270591   
O264     O      0.085263245000     0.491061500000     0.174187435000    -0.283262   
O264     O      0.085263245000     0.491061500000     0.674187435000    -0.283262   
O264     O      0.085263245000     0.991061500000     0.174187435000    -0.283262   
O264     O      0.085263245000     0.991061500000     0.674187435000    -0.283262   
O264     O      0.585263245000     0.491061500000     0.174187435000    -0.283262   
O264     O      0.585263245000     0.491061500000     0.674187435000    -0.283262   
O264     O      0.585263245000     0.991061500000     0.174187435000    -0.283262   
O264     O      0.585263245000     0.991061500000     0.674187435000    -0.283262   
O265     O      0.466892630000     0.035751705000     0.149325160000    -0.222179   
O265     O      0.466892630000     0.035751705000     0.649325160000    -0.222179   
O265     O      0.466892630000     0.535751705000     0.149325160000    -0.222179   
O265     O      0.466892630000     0.535751705000     0.649325160000    -0.222179   
O265     O      0.966892630000     0.035751705000     0.149325160000    -0.222179   
O265     O      0.966892630000     0.035751705000     0.649325160000    -0.222179   
O265     O      0.966892630000     0.535751705000     0.149325160000    -0.222179   
O265     O      0.966892630000     0.535751705000     0.649325160000    -0.222179   
O266     O      0.014136790000     0.036252925000     0.132874340000    -0.24782    
O266     O      0.014136790000     0.036252925000     0.632874340000    -0.24782    
O266     O      0.014136790000     0.536252925000     0.132874340000    -0.24782    
O266     O      0.014136790000     0.536252925000     0.632874340000    -0.24782    
O266     O      0.514136790000     0.036252925000     0.132874340000    -0.24782    
O266     O      0.514136790000     0.036252925000     0.632874340000    -0.24782    
O266     O      0.514136790000     0.536252925000     0.132874340000    -0.24782    
O266     O      0.514136790000     0.536252925000     0.632874340000    -0.24782    
O267     O      0.010124705000     0.014823845000     0.168965160000    -0.207629   
O267     O      0.010124705000     0.014823845000     0.668965160000    -0.207629   
O267     O      0.010124705000     0.514823845000     0.168965160000    -0.207629   
O267     O      0.010124705000     0.514823845000     0.668965160000    -0.207629   
O267     O      0.510124705000     0.014823845000     0.168965160000    -0.207629   
O267     O      0.510124705000     0.014823845000     0.668965160000    -0.207629   
O267     O      0.510124705000     0.514823845000     0.168965160000    -0.207629   
O267     O      0.510124705000     0.514823845000     0.668965160000    -0.207629   
O268     O      0.236505940000     0.280427215000     0.420027820000    -0.093209   
O268     O      0.236505940000     0.280427215000     0.920027820000    -0.093209   
O268     O      0.236505940000     0.780427215000     0.420027820000    -0.093209   
O268     O      0.236505940000     0.780427215000     0.920027820000    -0.093209   
O268     O      0.736505940000     0.280427215000     0.420027820000    -0.093209   
O268     O      0.736505940000     0.280427215000     0.920027820000    -0.093209   
O268     O      0.736505940000     0.780427215000     0.420027820000    -0.093209   
O268     O      0.736505940000     0.780427215000     0.920027820000    -0.093209   
O269     O      0.196712465000     0.302617650000     0.428907275000    -0.069403   
O269     O      0.196712465000     0.302617650000     0.928907275000    -0.069403   
O269     O      0.196712465000     0.802617650000     0.428907275000    -0.069403   
O269     O      0.196712465000     0.802617650000     0.928907275000    -0.069403   
O269     O      0.696712465000     0.302617650000     0.428907275000    -0.069403   
O269     O      0.696712465000     0.302617650000     0.928907275000    -0.069403   
O269     O      0.696712465000     0.802617650000     0.428907275000    -0.069403   
O269     O      0.696712465000     0.802617650000     0.928907275000    -0.069403   
O270     O      0.272524500000     0.409669800000     0.430152030000    -0.325287   
O270     O      0.272524500000     0.409669800000     0.930152030000    -0.325287   
O270     O      0.272524500000     0.909669800000     0.430152030000    -0.325287   
O270     O      0.272524500000     0.909669800000     0.930152030000    -0.325287   
O270     O      0.772524500000     0.409669800000     0.430152030000    -0.325287   
O270     O      0.772524500000     0.409669800000     0.930152030000    -0.325287   
O270     O      0.772524500000     0.909669800000     0.430152030000    -0.325287   
O270     O      0.772524500000     0.909669800000     0.930152030000    -0.325287   
O271     O      0.312321500000     0.387480150000     0.421273550000    -0.362549   
O271     O      0.312321500000     0.387480150000     0.921273550000    -0.362549   
O271     O      0.312321500000     0.887480150000     0.421273550000    -0.362549   
O271     O      0.312321500000     0.887480150000     0.921273550000    -0.362549   
O271     O      0.812321500000     0.387480150000     0.421273550000    -0.362549   
O271     O      0.812321500000     0.387480150000     0.921273550000    -0.362549   
O271     O      0.812321500000     0.887480150000     0.421273550000    -0.362549   
O271     O      0.812321500000     0.887480150000     0.921273550000    -0.362549   
O272     O      0.303806300000     0.328237500000     0.013565480000    -0.488529   
O272     O      0.303806300000     0.328237500000     0.513565480000    -0.488529   
O272     O      0.303806300000     0.828237500000     0.013565480000    -0.488529   
O272     O      0.303806300000     0.828237500000     0.513565480000    -0.488529   
O272     O      0.803806300000     0.328237500000     0.013565480000    -0.488529   
O272     O      0.803806300000     0.328237500000     0.513565480000    -0.488529   
O272     O      0.803806300000     0.828237500000     0.013565480000    -0.488529   
O272     O      0.803806300000     0.828237500000     0.513565480000    -0.488529   
O273     O      0.333037500000     0.353999970000     0.497394650000    -0.480671   
O273     O      0.333037500000     0.353999970000     0.997394650000    -0.480671   
O273     O      0.333037500000     0.853999970000     0.497394650000    -0.480671   
O273     O      0.333037500000     0.853999970000     0.997394650000    -0.480671   
O273     O      0.833037500000     0.353999970000     0.497394650000    -0.480671   
O273     O      0.833037500000     0.353999970000     0.997394650000    -0.480671   
O273     O      0.833037500000     0.853999970000     0.497394650000    -0.480671   
O273     O      0.833037500000     0.853999970000     0.997394650000    -0.480671   
O274     O      0.112656245000     0.155858200000     0.430615065000    -0.086118   
O274     O      0.112656245000     0.155858200000     0.930615065000    -0.086118   
O274     O      0.112656245000     0.655858200000     0.430615065000    -0.086118   
O274     O      0.112656245000     0.655858200000     0.930615065000    -0.086118   
O274     O      0.612656245000     0.155858200000     0.430615065000    -0.086118   
O274     O      0.612656245000     0.155858200000     0.930615065000    -0.086118   
O274     O      0.612656245000     0.655858200000     0.430615065000    -0.086118   
O274     O      0.612656245000     0.655858200000     0.930615065000    -0.086118   
O275     O      0.133420720000     0.118022115000     0.425036875000    -0.099405   
O275     O      0.133420720000     0.118022115000     0.925036875000    -0.099405   
O275     O      0.133420720000     0.618022115000     0.425036875000    -0.099405   
O275     O      0.133420720000     0.618022115000     0.925036875000    -0.099405   
O275     O      0.633420720000     0.118022115000     0.425036875000    -0.099405   
O275     O      0.633420720000     0.118022115000     0.925036875000    -0.099405   
O275     O      0.633420720000     0.618022115000     0.425036875000    -0.099405   
O275     O      0.633420720000     0.618022115000     0.925036875000    -0.099405   
O276     O      0.390013070000     0.048573895000     0.440608500000    -0.096885   
O276     O      0.390013070000     0.048573895000     0.940608500000    -0.096885   
O276     O      0.390013070000     0.548573895000     0.440608500000    -0.096885   
O276     O      0.390013070000     0.548573895000     0.940608500000    -0.096885   
O276     O      0.890013070000     0.048573895000     0.440608500000    -0.096885   
O276     O      0.890013070000     0.048573895000     0.940608500000    -0.096885   
O276     O      0.890013070000     0.548573895000     0.440608500000    -0.096885   
O276     O      0.890013070000     0.548573895000     0.940608500000    -0.096885   
O277     O      0.387566030000     0.054861945000     0.405936650000    -0.108288   
O277     O      0.387566030000     0.054861945000     0.905936650000    -0.108288   
O277     O      0.387566030000     0.554861945000     0.405936650000    -0.108288   
O277     O      0.387566030000     0.554861945000     0.905936650000    -0.108288   
O277     O      0.887566030000     0.054861945000     0.405936650000    -0.108288   
O277     O      0.887566030000     0.054861945000     0.905936650000    -0.108288   
O277     O      0.887566030000     0.554861945000     0.405936650000    -0.108288   
O277     O      0.887566030000     0.554861945000     0.905936650000    -0.108288   
O278     O      0.473098725000     0.154538380000     0.438737450000    -0.874212   
O278     O      0.473098725000     0.154538380000     0.938737450000    -0.874212   
O278     O      0.473098725000     0.654538380000     0.438737450000    -0.874212   
O278     O      0.473098725000     0.654538380000     0.938737450000    -0.874212   
O278     O      0.973098725000     0.154538380000     0.438737450000    -0.874212   
O278     O      0.973098725000     0.154538380000     0.938737450000    -0.874212   
O278     O      0.973098725000     0.654538380000     0.438737450000    -0.874212   
O278     O      0.973098725000     0.654538380000     0.938737450000    -0.874212   
O279     O      0.020666520000     0.158217000000     0.437045800000    -0.558452   
O279     O      0.020666520000     0.158217000000     0.937045800000    -0.558452   
O279     O      0.020666520000     0.658217000000     0.437045800000    -0.558452   
O279     O      0.020666520000     0.658217000000     0.937045800000    -0.558452   
O279     O      0.520666520000     0.158217000000     0.437045800000    -0.558452   
O279     O      0.520666520000     0.158217000000     0.937045800000    -0.558452   
O279     O      0.520666520000     0.658217000000     0.437045800000    -0.558452   
O279     O      0.520666520000     0.658217000000     0.937045800000    -0.558452   
O280     O      0.407419650000     0.244379880000     0.143675850000    -0.189801   
O280     O      0.407419650000     0.244379880000     0.643675850000    -0.189801   
O280     O      0.407419650000     0.744379880000     0.143675850000    -0.189801   
O280     O      0.407419650000     0.744379880000     0.643675850000    -0.189801   
O280     O      0.907419650000     0.244379880000     0.143675850000    -0.189801   
O280     O      0.907419650000     0.244379880000     0.643675850000    -0.189801   
O280     O      0.907419650000     0.744379880000     0.143675850000    -0.189801   
O280     O      0.907419650000     0.744379880000     0.643675850000    -0.189801   
O281     O      0.498798950000     0.314455600000     0.083553925000    -0.348022   
O281     O      0.498798950000     0.314455600000     0.583553925000    -0.348022   
O281     O      0.498798950000     0.814455600000     0.083553925000    -0.348022   
O281     O      0.498798950000     0.814455600000     0.583553925000    -0.348022   
O281     O      0.998798950000     0.314455600000     0.083553925000    -0.348022   
O281     O      0.998798950000     0.314455600000     0.583553925000    -0.348022   
O281     O      0.998798950000     0.814455600000     0.083553925000    -0.348022   
O281     O      0.998798950000     0.814455600000     0.583553925000    -0.348022   
O282     O      0.447844250000     0.220871760000     0.157530300000    -0.113855   
O282     O      0.447844250000     0.220871760000     0.657530300000    -0.113855   
O282     O      0.447844250000     0.720871760000     0.157530300000    -0.113855   
O282     O      0.447844250000     0.720871760000     0.657530300000    -0.113855   
O282     O      0.947844250000     0.220871760000     0.157530300000    -0.113855   
O282     O      0.947844250000     0.220871760000     0.657530300000    -0.113855   
O282     O      0.947844250000     0.720871760000     0.157530300000    -0.113855   
O282     O      0.947844250000     0.720871760000     0.657530300000    -0.113855   
O283     O      0.458374320000     0.337963750000     0.069699465000    -0.228459   
O283     O      0.458374320000     0.337963750000     0.569699465000    -0.228459   
O283     O      0.458374320000     0.837963750000     0.069699465000    -0.228459   
O283     O      0.458374320000     0.837963750000     0.569699465000    -0.228459   
O283     O      0.958374320000     0.337963750000     0.069699465000    -0.228459   
O283     O      0.958374320000     0.337963750000     0.569699465000    -0.228459   
O283     O      0.958374320000     0.837963750000     0.069699465000    -0.228459   
O283     O      0.958374320000     0.837963750000     0.569699465000    -0.228459   
O284     O      0.009698210000     0.269086400000     0.110520760000    -0.103705   
O284     O      0.009698210000     0.269086400000     0.610520760000    -0.103705   
O284     O      0.009698210000     0.769086400000     0.110520760000    -0.103705   
O284     O      0.009698210000     0.769086400000     0.610520760000    -0.103705   
O284     O      0.509698210000     0.269086400000     0.110520760000    -0.103705   
O284     O      0.509698210000     0.269086400000     0.610520760000    -0.103705   
O284     O      0.509698210000     0.769086400000     0.110520760000    -0.103705   
O284     O      0.509698210000     0.769086400000     0.610520760000    -0.103705   
O285     O      0.489414575000     0.262798875000     0.079097680000    -0.119389   
O285     O      0.489414575000     0.262798875000     0.579097680000    -0.119389   
O285     O      0.489414575000     0.762798875000     0.079097680000    -0.119389   
O285     O      0.489414575000     0.762798875000     0.579097680000    -0.119389   
O285     O      0.989414575000     0.262798875000     0.079097680000    -0.119389   
O285     O      0.989414575000     0.262798875000     0.579097680000    -0.119389   
O285     O      0.989414575000     0.762798875000     0.079097680000    -0.119389   
O285     O      0.989414575000     0.762798875000     0.579097680000    -0.119389   
O286     O      0.396490950000     0.289652080000     0.116528570000    -0.238803   
O286     O      0.396490950000     0.289652080000     0.616528570000    -0.238803   
O286     O      0.396490950000     0.789652080000     0.116528570000    -0.238803   
O286     O      0.396490950000     0.789652080000     0.616528570000    -0.238803   
O286     O      0.896490950000     0.289652080000     0.116528570000    -0.238803   
O286     O      0.896490950000     0.289652080000     0.616528570000    -0.238803   
O286     O      0.896490950000     0.789652080000     0.116528570000    -0.238803   
O286     O      0.896490950000     0.789652080000     0.616528570000    -0.238803   
O287     O      0.416554300000     0.296015680000     0.148018015000    -0.21432    
O287     O      0.416554300000     0.296015680000     0.648018015000    -0.21432    
O287     O      0.416554300000     0.796015680000     0.148018015000    -0.21432    
O287     O      0.416554300000     0.796015680000     0.648018015000    -0.21432    
O287     O      0.916554300000     0.296015680000     0.148018015000    -0.21432    
O287     O      0.916554300000     0.296015680000     0.648018015000    -0.21432    
O287     O      0.916554300000     0.796015680000     0.148018015000    -0.21432    
O287     O      0.916554300000     0.796015680000     0.648018015000    -0.21432    
O288     O      0.035958415000     0.327779150000     0.014841495000    -0.291159   
O288     O      0.035958415000     0.327779150000     0.514841495000    -0.291159   
O288     O      0.035958415000     0.827779150000     0.014841495000    -0.291159   
O288     O      0.035958415000     0.827779150000     0.514841495000    -0.291159   
O288     O      0.535958415000     0.327779150000     0.014841495000    -0.291159   
O288     O      0.535958415000     0.327779150000     0.514841495000    -0.291159   
O288     O      0.535958415000     0.827779150000     0.014841495000    -0.291159   
O288     O      0.535958415000     0.827779150000     0.514841495000    -0.291159   
O289     O      0.102199675000     0.236599685000     0.451975525000    -0.465709   
O289     O      0.102199675000     0.236599685000     0.951975525000    -0.465709   
O289     O      0.102199675000     0.736599685000     0.451975525000    -0.465709   
O289     O      0.102199675000     0.736599685000     0.951975525000    -0.465709   
O289     O      0.602199675000     0.236599685000     0.451975525000    -0.465709   
O289     O      0.602199675000     0.236599685000     0.951975525000    -0.465709   
O289     O      0.602199675000     0.736599685000     0.451975525000    -0.465709   
O289     O      0.602199675000     0.736599685000     0.951975525000    -0.465709   
O290     O      0.493078320000     0.317181150000     0.003554405000    -0.289364   
O290     O      0.493078320000     0.317181150000     0.503554405000    -0.289364   
O290     O      0.493078320000     0.817181150000     0.003554405000    -0.289364   
O290     O      0.493078320000     0.817181150000     0.503554405000    -0.289364   
O290     O      0.993078320000     0.317181150000     0.003554405000    -0.289364   
O290     O      0.993078320000     0.317181150000     0.503554405000    -0.289364   
O290     O      0.993078320000     0.817181150000     0.003554405000    -0.289364   
O290     O      0.993078320000     0.817181150000     0.503554405000    -0.289364   
O291     O      0.145079790000     0.247197675000     0.463262600000    -0.225654   
O291     O      0.145079790000     0.247197675000     0.963262600000    -0.225654   
O291     O      0.145079790000     0.747197675000     0.463262600000    -0.225654   
O291     O      0.145079790000     0.747197675000     0.963262600000    -0.225654   
O291     O      0.645079790000     0.247197675000     0.463262600000    -0.225654   
O291     O      0.645079790000     0.247197675000     0.963262600000    -0.225654   
O291     O      0.645079790000     0.747197675000     0.463262600000    -0.225654   
O291     O      0.645079790000     0.747197675000     0.963262600000    -0.225654   
O292     O      0.039690720000     0.260515500000     0.450866050000    -0.253728   
O292     O      0.039690720000     0.260515500000     0.950866050000    -0.253728   
O292     O      0.039690720000     0.760515500000     0.450866050000    -0.253728   
O292     O      0.039690720000     0.760515500000     0.950866050000    -0.253728   
O292     O      0.539690720000     0.260515500000     0.450866050000    -0.253728   
O292     O      0.539690720000     0.260515500000     0.950866050000    -0.253728   
O292     O      0.539690720000     0.760515500000     0.450866050000    -0.253728   
O292     O      0.539690720000     0.760515500000     0.950866050000    -0.253728   
O293     O      0.073526555000     0.278222830000     0.432189075000    -0.398033   
O293     O      0.073526555000     0.278222830000     0.932189075000    -0.398033   
O293     O      0.073526555000     0.778222830000     0.432189075000    -0.398033   
O293     O      0.073526555000     0.778222830000     0.932189075000    -0.398033   
O293     O      0.573526555000     0.278222830000     0.432189075000    -0.398033   
O293     O      0.573526555000     0.278222830000     0.932189075000    -0.398033   
O293     O      0.573526555000     0.778222830000     0.432189075000    -0.398033   
O293     O      0.573526555000     0.778222830000     0.932189075000    -0.398033   
O294     O      0.085129745000     0.336078375000     0.476407200000    -0.378894   
O294     O      0.085129745000     0.336078375000     0.976407200000    -0.378894   
O294     O      0.085129745000     0.836078375000     0.476407200000    -0.378894   
O294     O      0.085129745000     0.836078375000     0.976407200000    -0.378894   
O294     O      0.585129745000     0.336078375000     0.476407200000    -0.378894   
O294     O      0.585129745000     0.336078375000     0.976407200000    -0.378894   
O294     O      0.585129745000     0.836078375000     0.476407200000    -0.378894   
O294     O      0.585129745000     0.836078375000     0.976407200000    -0.378894   
O295     O      0.093365515000     0.317155925000     0.007255195000    -0.431125   
O295     O      0.093365515000     0.317155925000     0.507255195000    -0.431125   
O295     O      0.093365515000     0.817155925000     0.007255195000    -0.431125   
O295     O      0.093365515000     0.817155925000     0.507255195000    -0.431125   
O295     O      0.593365515000     0.317155925000     0.007255195000    -0.431125   
O295     O      0.593365515000     0.317155925000     0.507255195000    -0.431125   
O295     O      0.593365515000     0.817155925000     0.007255195000    -0.431125   
O295     O      0.593365515000     0.817155925000     0.507255195000    -0.431125   
O296     O      0.071626460000     0.347698700000     0.099218265000    -0.274962   
O296     O      0.071626460000     0.347698700000     0.599218265000    -0.274962   
O296     O      0.071626460000     0.847698700000     0.099218265000    -0.274962   
O296     O      0.071626460000     0.847698700000     0.599218265000    -0.274962   
O296     O      0.571626460000     0.347698700000     0.099218265000    -0.274962   
O296     O      0.571626460000     0.347698700000     0.599218265000    -0.274962   
O296     O      0.571626460000     0.847698700000     0.099218265000    -0.274962   
O296     O      0.571626460000     0.847698700000     0.599218265000    -0.274962   
O297     O      0.099134540000     0.368953975000     0.072921640000    -0.203635   
O297     O      0.099134540000     0.368953975000     0.572921640000    -0.203635   
O297     O      0.099134540000     0.868953975000     0.072921640000    -0.203635   
O297     O      0.099134540000     0.868953975000     0.572921640000    -0.203635   
O297     O      0.599134540000     0.368953975000     0.072921640000    -0.203635   
O297     O      0.599134540000     0.368953975000     0.572921640000    -0.203635   
O297     O      0.599134540000     0.868953975000     0.072921640000    -0.203635   
O297     O      0.599134540000     0.868953975000     0.572921640000    -0.203635   
O298     O      0.123188550000     0.359584050000     0.108802875000    -0.207388   
O298     O      0.123188550000     0.359584050000     0.608802875000    -0.207388   
O298     O      0.123188550000     0.859584050000     0.108802875000    -0.207388   
O298     O      0.123188550000     0.859584050000     0.608802875000    -0.207388   
O298     O      0.623188550000     0.359584050000     0.108802875000    -0.207388   
O298     O      0.623188550000     0.359584050000     0.608802875000    -0.207388   
O298     O      0.623188550000     0.859584050000     0.108802875000    -0.207388   
O298     O      0.623188550000     0.859584050000     0.608802875000    -0.207388   
O299     O      0.117832780000     0.439568500000     0.150525140000    -0.282329   
O299     O      0.117832780000     0.439568500000     0.650525140000    -0.282329   
O299     O      0.117832780000     0.939568500000     0.150525140000    -0.282329   
O299     O      0.117832780000     0.939568500000     0.650525140000    -0.282329   
O299     O      0.617832780000     0.439568500000     0.150525140000    -0.282329   
O299     O      0.617832780000     0.439568500000     0.650525140000    -0.282329   
O299     O      0.617832780000     0.939568500000     0.150525140000    -0.282329   
O299     O      0.617832780000     0.939568500000     0.650525140000    -0.282329   
O300     O      0.043173880000     0.384989770000     0.065615485000    -0.438788   
O300     O      0.043173880000     0.384989770000     0.565615485000    -0.438788   
O300     O      0.043173880000     0.884989770000     0.065615485000    -0.438788   
O300     O      0.043173880000     0.884989770000     0.565615485000    -0.438788   
O300     O      0.543173880000     0.384989770000     0.065615485000    -0.438788   
O300     O      0.543173880000     0.384989770000     0.565615485000    -0.438788   
O300     O      0.543173880000     0.884989770000     0.065615485000    -0.438788   
O300     O      0.543173880000     0.884989770000     0.565615485000    -0.438788   
O301     O      0.134524165000     0.405520080000     0.167440280000    -0.225827   
O301     O      0.134524165000     0.405520080000     0.667440280000    -0.225827   
O301     O      0.134524165000     0.905520080000     0.167440280000    -0.225827   
O301     O      0.134524165000     0.905520080000     0.667440280000    -0.225827   
O301     O      0.634524165000     0.405520080000     0.167440280000    -0.225827   
O301     O      0.634524165000     0.405520080000     0.667440280000    -0.225827   
O301     O      0.634524165000     0.905520080000     0.167440280000    -0.225827   
O301     O      0.634524165000     0.905520080000     0.667440280000    -0.225827   
O302     O      0.007880350000     0.389459350000     0.088330545000    -0.339365   
O302     O      0.007880350000     0.389459350000     0.588330545000    -0.339365   
O302     O      0.007880350000     0.889459350000     0.088330545000    -0.339365   
O302     O      0.007880350000     0.889459350000     0.588330545000    -0.339365   
O302     O      0.507880350000     0.389459350000     0.088330545000    -0.339365   
O302     O      0.507880350000     0.389459350000     0.588330545000    -0.339365   
O302     O      0.507880350000     0.889459350000     0.088330545000    -0.339365   
O302     O      0.507880350000     0.889459350000     0.588330545000    -0.339365   
O303     O      0.189097200000     0.440106800000     0.175511450000    -0.195641   
O303     O      0.189097200000     0.440106800000     0.675511450000    -0.195641   
O303     O      0.189097200000     0.940106800000     0.175511450000    -0.195641   
O303     O      0.189097200000     0.940106800000     0.675511450000    -0.195641   
O303     O      0.689097200000     0.440106800000     0.175511450000    -0.195641   
O303     O      0.689097200000     0.440106800000     0.675511450000    -0.195641   
O303     O      0.689097200000     0.940106800000     0.175511450000    -0.195641   
O303     O      0.689097200000     0.940106800000     0.675511450000    -0.195641   
O304     O      0.361872000000     0.258195350000     0.166135580000    -0.229256   
O304     O      0.361872000000     0.258195350000     0.666135580000    -0.229256   
O304     O      0.361872000000     0.758195350000     0.166135580000    -0.229256   
O304     O      0.361872000000     0.758195350000     0.666135580000    -0.229256   
O304     O      0.861872000000     0.258195350000     0.166135580000    -0.229256   
O304     O      0.861872000000     0.258195350000     0.666135580000    -0.229256   
O304     O      0.861872000000     0.758195350000     0.166135580000    -0.229256   
O304     O      0.861872000000     0.758195350000     0.666135580000    -0.229256   
O305     O      0.343434950000     0.248182265000     0.197635150000    -0.201759   
O305     O      0.343434950000     0.248182265000     0.697635150000    -0.201759   
O305     O      0.343434950000     0.748182265000     0.197635150000    -0.201759   
O305     O      0.343434950000     0.748182265000     0.697635150000    -0.201759   
O305     O      0.843434950000     0.248182265000     0.197635150000    -0.201759   
O305     O      0.843434950000     0.248182265000     0.697635150000    -0.201759   
O305     O      0.843434950000     0.748182265000     0.197635150000    -0.201759   
O305     O      0.843434950000     0.748182265000     0.697635150000    -0.201759   
O306     O      0.159014880000     0.415593250000     0.159502350000    -0.28551    
O306     O      0.159014880000     0.415593250000     0.659502350000    -0.28551    
O306     O      0.159014880000     0.915593250000     0.159502350000    -0.28551    
O306     O      0.159014880000     0.915593250000     0.659502350000    -0.28551    
O306     O      0.659014880000     0.415593250000     0.159502350000    -0.28551    
O306     O      0.659014880000     0.415593250000     0.659502350000    -0.28551    
O306     O      0.659014880000     0.915593250000     0.159502350000    -0.28551    
O306     O      0.659014880000     0.915593250000     0.659502350000    -0.28551    
O307     O      0.200665300000     0.308641650000     0.140904500000    -0.189695   
O307     O      0.200665300000     0.308641650000     0.640904500000    -0.189695   
O307     O      0.200665300000     0.808641650000     0.140904500000    -0.189695   
O307     O      0.200665300000     0.808641650000     0.640904500000    -0.189695   
O307     O      0.700665300000     0.308641650000     0.140904500000    -0.189695   
O307     O      0.700665300000     0.308641650000     0.640904500000    -0.189695   
O307     O      0.700665300000     0.808641650000     0.140904500000    -0.189695   
O307     O      0.700665300000     0.808641650000     0.640904500000    -0.189695   
O308     O      0.179923310000     0.329118350000     0.172114050000    -0.176527   
O308     O      0.179923310000     0.329118350000     0.672114050000    -0.176527   
O308     O      0.179923310000     0.829118350000     0.172114050000    -0.176527   
O308     O      0.179923310000     0.829118350000     0.672114050000    -0.176527   
O308     O      0.679923310000     0.329118350000     0.172114050000    -0.176527   
O308     O      0.679923310000     0.329118350000     0.672114050000    -0.176527   
O308     O      0.679923310000     0.829118350000     0.172114050000    -0.176527   
O308     O      0.679923310000     0.829118350000     0.672114050000    -0.176527   
O309     O      0.189593775000     0.355864525000     0.139523430000    -0.357205   
O309     O      0.189593775000     0.355864525000     0.639523430000    -0.357205   
O309     O      0.189593775000     0.855864525000     0.139523430000    -0.357205   
O309     O      0.189593775000     0.855864525000     0.639523430000    -0.357205   
O309     O      0.689593775000     0.355864525000     0.139523430000    -0.357205   
O309     O      0.689593775000     0.355864525000     0.639523430000    -0.357205   
O309     O      0.689593775000     0.855864525000     0.139523430000    -0.357205   
O309     O      0.689593775000     0.855864525000     0.639523430000    -0.357205   
O310     O      0.139237685000     0.194737630000     0.385733930000    -0.287119   
O310     O      0.139237685000     0.194737630000     0.885733930000    -0.287119   
O310     O      0.139237685000     0.694737630000     0.385733930000    -0.287119   
O310     O      0.139237685000     0.694737630000     0.885733930000    -0.287119   
O310     O      0.639237685000     0.194737630000     0.385733930000    -0.287119   
O310     O      0.639237685000     0.194737630000     0.885733930000    -0.287119   
O310     O      0.639237685000     0.694737630000     0.385733930000    -0.287119   
O310     O      0.639237685000     0.694737630000     0.885733930000    -0.287119   
O311     O      0.247790440000     0.116564320000     0.348602000000    -0.41362    
O311     O      0.247790440000     0.116564320000     0.848602000000    -0.41362    
O311     O      0.247790440000     0.616564320000     0.348602000000    -0.41362    
O311     O      0.247790440000     0.616564320000     0.848602000000    -0.41362    
O311     O      0.747790440000     0.116564320000     0.348602000000    -0.41362    
O311     O      0.747790440000     0.116564320000     0.848602000000    -0.41362    
O311     O      0.747790440000     0.616564320000     0.348602000000    -0.41362    
O311     O      0.747790440000     0.616564320000     0.848602000000    -0.41362    
O312     O      0.122936765000     0.163725810000     0.403925600000    -0.413609   
O312     O      0.122936765000     0.163725810000     0.903925600000    -0.413609   
O312     O      0.122936765000     0.663725810000     0.403925600000    -0.413609   
O312     O      0.122936765000     0.663725810000     0.903925600000    -0.413609   
O312     O      0.622936765000     0.163725810000     0.403925600000    -0.413609   
O312     O      0.622936765000     0.163725810000     0.903925600000    -0.413609   
O312     O      0.622936765000     0.663725810000     0.403925600000    -0.413609   
O312     O      0.622936765000     0.663725810000     0.903925600000    -0.413609   
O313     O      0.264091370000     0.147576150000     0.330410330000    -0.341085   
O313     O      0.264091370000     0.147576150000     0.830410330000    -0.341085   
O313     O      0.264091370000     0.647576150000     0.330410330000    -0.341085   
O313     O      0.264091370000     0.647576150000     0.830410330000    -0.341085   
O313     O      0.764091370000     0.147576150000     0.330410330000    -0.341085   
O313     O      0.764091370000     0.147576150000     0.830410330000    -0.341085   
O313     O      0.764091370000     0.647576150000     0.330410330000    -0.341085   
O313     O      0.764091370000     0.647576150000     0.830410330000    -0.341085   
O314     O      0.154101650000     0.165238025000     0.320398570000    -0.36651    
O314     O      0.154101650000     0.165238025000     0.820398570000    -0.36651    
O314     O      0.154101650000     0.665238025000     0.320398570000    -0.36651    
O314     O      0.154101650000     0.665238025000     0.820398570000    -0.36651    
O314     O      0.654101650000     0.165238025000     0.320398570000    -0.36651    
O314     O      0.654101650000     0.165238025000     0.820398570000    -0.36651    
O314     O      0.654101650000     0.665238025000     0.320398570000    -0.36651    
O314     O      0.654101650000     0.665238025000     0.820398570000    -0.36651    
O315     O      0.119160735000     0.177833425000     0.346920550000    -0.448492   
O315     O      0.119160735000     0.177833425000     0.846920550000    -0.448492   
O315     O      0.119160735000     0.677833425000     0.346920550000    -0.448492   
O315     O      0.119160735000     0.677833425000     0.846920550000    -0.448492   
O315     O      0.619160735000     0.177833425000     0.346920550000    -0.448492   
O315     O      0.619160735000     0.177833425000     0.846920550000    -0.448492   
O315     O      0.619160735000     0.677833425000     0.346920550000    -0.448492   
O315     O      0.619160735000     0.677833425000     0.846920550000    -0.448492   
O316     O      0.161641775000     0.205995320000     0.341472775000    -0.378042   
O316     O      0.161641775000     0.205995320000     0.841472775000    -0.378042   
O316     O      0.161641775000     0.705995320000     0.341472775000    -0.378042   
O316     O      0.161641775000     0.705995320000     0.841472775000    -0.378042   
O316     O      0.661641775000     0.205995320000     0.341472775000    -0.378042   
O316     O      0.661641775000     0.205995320000     0.841472775000    -0.378042   
O316     O      0.661641775000     0.705995320000     0.341472775000    -0.378042   
O316     O      0.661641775000     0.705995320000     0.841472775000    -0.378042   
O317     O      0.228846730000     0.127153400000     0.389250220000    -0.488326   
O317     O      0.228846730000     0.127153400000     0.889250220000    -0.488326   
O317     O      0.228846730000     0.627153400000     0.389250220000    -0.488326   
O317     O      0.228846730000     0.627153400000     0.889250220000    -0.488326   
O317     O      0.728846730000     0.127153400000     0.389250220000    -0.488326   
O317     O      0.728846730000     0.127153400000     0.889250220000    -0.488326   
O317     O      0.728846730000     0.627153400000     0.389250220000    -0.488326   
O317     O      0.728846730000     0.627153400000     0.889250220000    -0.488326   
O318     O      0.253643100000     0.162538440000     0.376139135000    -0.410449   
O318     O      0.253643100000     0.162538440000     0.876139135000    -0.410449   
O318     O      0.253643100000     0.662538440000     0.376139135000    -0.410449   
O318     O      0.253643100000     0.662538440000     0.876139135000    -0.410449   
O318     O      0.753643100000     0.162538440000     0.376139135000    -0.410449   
O318     O      0.753643100000     0.162538440000     0.876139135000    -0.410449   
O318     O      0.753643100000     0.662538440000     0.376139135000    -0.410449   
O318     O      0.753643100000     0.662538440000     0.876139135000    -0.410449   
O319     O      0.209507240000     0.171352200000     0.400094900000    -0.461249   
O319     O      0.209507240000     0.171352200000     0.900094900000    -0.461249   
O319     O      0.209507240000     0.671352200000     0.400094900000    -0.461249   
O319     O      0.209507240000     0.671352200000     0.900094900000    -0.461249   
O319     O      0.709507240000     0.171352200000     0.400094900000    -0.461249   
O319     O      0.709507240000     0.171352200000     0.900094900000    -0.461249   
O319     O      0.709507240000     0.671352200000     0.400094900000    -0.461249   
O319     O      0.709507240000     0.671352200000     0.900094900000    -0.461249   
O320     O      0.340454875000     0.111873955000     0.275117665000     1.1578     
O320     O      0.340454875000     0.111873955000     0.775117665000     1.1578     
O320     O      0.340454875000     0.611873955000     0.275117665000     1.1578     
O320     O      0.340454875000     0.611873955000     0.775117665000     1.1578     
O320     O      0.840454875000     0.111873955000     0.275117665000     1.1578     
O320     O      0.840454875000     0.111873955000     0.775117665000     1.1578     
O320     O      0.840454875000     0.611873955000     0.275117665000     1.1578     
O320     O      0.840454875000     0.611873955000     0.775117665000     1.1578     
O321     O      0.293662050000     0.122928725000     0.279539550000     1.12283    
O321     O      0.293662050000     0.122928725000     0.779539550000     1.12283    
O321     O      0.293662050000     0.622928725000     0.279539550000     1.12283    
O321     O      0.293662050000     0.622928725000     0.779539550000     1.12283    
O321     O      0.793662050000     0.122928725000     0.279539550000     1.12283    
O321     O      0.793662050000     0.122928725000     0.779539550000     1.12283    
O321     O      0.793662050000     0.622928725000     0.279539550000     1.12283    
O321     O      0.793662050000     0.622928725000     0.779539550000     1.12283    
O322     O      0.349499435000     0.178625525000     0.189147430000     1.29011    
O322     O      0.349499435000     0.178625525000     0.689147430000     1.29011    
O322     O      0.349499435000     0.678625525000     0.189147430000     1.29011    
O322     O      0.349499435000     0.678625525000     0.689147430000     1.29011    
O322     O      0.849499435000     0.178625525000     0.189147430000     1.29011    
O322     O      0.849499435000     0.178625525000     0.689147430000     1.29011    
O322     O      0.849499435000     0.678625525000     0.189147430000     1.29011    
O322     O      0.849499435000     0.678625525000     0.689147430000     1.29011    
O323     O      0.310732600000     0.194850370000     0.190740375000     1.15267    
O323     O      0.310732600000     0.194850370000     0.690740375000     1.15267    
O323     O      0.310732600000     0.694850370000     0.190740375000     1.15267    
O323     O      0.310732600000     0.694850370000     0.690740375000     1.15267    
O323     O      0.810732600000     0.194850370000     0.190740375000     1.15267    
O323     O      0.810732600000     0.194850370000     0.690740375000     1.15267    
O323     O      0.810732600000     0.694850370000     0.190740375000     1.15267    
O323     O      0.810732600000     0.694850370000     0.690740375000     1.15267    
O324     O      0.290968600000     0.077363975000     0.332907750000     1.09665    
O324     O      0.290968600000     0.077363975000     0.832907750000     1.09665    
O324     O      0.290968600000     0.577363975000     0.332907750000     1.09665    
O324     O      0.290968600000     0.577363975000     0.832907750000     1.09665    
O324     O      0.790968600000     0.077363975000     0.332907750000     1.09665    
O324     O      0.790968600000     0.077363975000     0.832907750000     1.09665    
O324     O      0.790968600000     0.577363975000     0.332907750000     1.09665    
O324     O      0.790968600000     0.577363975000     0.832907750000     1.09665    
O325     O      0.343342050000     0.483620020000     0.398068875000     1.10522    
O325     O      0.343342050000     0.483620020000     0.898068875000     1.10522    
O325     O      0.343342050000     0.983620020000     0.398068875000     1.10522    
O325     O      0.343342050000     0.983620020000     0.898068875000     1.10522    
O325     O      0.843342050000     0.483620020000     0.398068875000     1.10522    
O325     O      0.843342050000     0.483620020000     0.898068875000     1.10522    
O325     O      0.843342050000     0.983620020000     0.398068875000     1.10522    
O325     O      0.843342050000     0.983620020000     0.898068875000     1.10522    
O326     O      0.244598375000     0.068408595000     0.340996950000     1.07164    
O326     O      0.244598375000     0.068408595000     0.840996950000     1.07164    
O326     O      0.244598375000     0.568408595000     0.340996950000     1.07164    
O326     O      0.244598375000     0.568408595000     0.840996950000     1.07164    
O326     O      0.744598375000     0.068408595000     0.340996950000     1.07164    
O326     O      0.744598375000     0.068408595000     0.840996950000     1.07164    
O326     O      0.744598375000     0.568408595000     0.340996950000     1.07164    
O326     O      0.744598375000     0.568408595000     0.840996950000     1.07164    
O327     O      0.389712335000     0.492575375000     0.389979630000     1.09507    
O327     O      0.389712335000     0.492575375000     0.889979630000     1.09507    
O327     O      0.389712335000     0.992575375000     0.389979630000     1.09507    
O327     O      0.389712335000     0.992575375000     0.889979630000     1.09507    
O327     O      0.889712335000     0.492575375000     0.389979630000     1.09507    
O327     O      0.889712335000     0.492575375000     0.889979630000     1.09507    
O327     O      0.889712335000     0.992575375000     0.389979630000     1.09507    
O327     O      0.889712335000     0.992575375000     0.889979630000     1.09507    
F328     F      0.311061900000     0.024837160000     0.393432675000     1.11367    
F328     F      0.311061900000     0.024837160000     0.893432675000     1.11367    
F328     F      0.311061900000     0.524837160000     0.393432675000     1.11367    
F328     F      0.311061900000     0.524837160000     0.893432675000     1.11367    
F328     F      0.811061900000     0.024837160000     0.393432675000     1.11367    
F328     F      0.811061900000     0.024837160000     0.893432675000     1.11367    
F328     F      0.811061900000     0.524837160000     0.393432675000     1.11367    
F328     F      0.811061900000     0.524837160000     0.893432675000     1.11367    
F329     F      0.323245900000     0.036142900000     0.337543280000     1.09444    
F329     F      0.323245900000     0.036142900000     0.837543280000     1.09444    
F329     F      0.323245900000     0.536142900000     0.337543280000     1.09444    
F329     F      0.323245900000     0.536142900000     0.837543280000     1.09444    
F329     F      0.823245900000     0.036142900000     0.337543280000     1.09444    
F329     F      0.823245900000     0.036142900000     0.837543280000     1.09444    
F329     F      0.823245900000     0.536142900000     0.337543280000     1.09444    
F329     F      0.823245900000     0.536142900000     0.837543280000     1.09444    


