data_sample_19_relaxed_charged

_audit_creation_method RASPA-1.0
_audit_creation_date 2026-2-5
_audit_author_name ''

_cell_length_a    25.4213
_cell_length_b    25.7528
_cell_length_c    32.7822
_cell_angle_alpha 91.2154
_cell_angle_beta  92.8778
_cell_angle_gamma 85.0715
_cell_volume      170817

_symmetry_cell_setting          triclinic
_symmetry_space_group_name_Hall 'P 1'
_symmetry_space_group_name_H-M  'P 1'
_symmetry_Int_Tables_number     1

_symmetry_equiv_pos_as_xyz 'x,y,z'

loop_
_atom_site_label
_atom_site_type_symbol
_atom_site_fract_x
_atom_site_fract_y
_atom_site_fract_z
_atom_site_charge
Zn0      Zn     0.173818350000     0.297743600000     0.341080700000     7.04331    
Zn0      Zn     0.173818350000     0.297743600000     0.841080700000     7.04331    
Zn0      Zn     0.173818350000     0.797743600000     0.341080700000     7.04331    
Zn0      Zn     0.173818350000     0.797743600000     0.841080700000     7.04331    
Zn0      Zn     0.673818350000     0.297743600000     0.341080700000     7.04331    
Zn0      Zn     0.673818350000     0.297743600000     0.841080700000     7.04331    
Zn0      Zn     0.673818350000     0.797743600000     0.341080700000     7.04331    
Zn0      Zn     0.673818350000     0.797743600000     0.841080700000     7.04331    
Zn1      Zn     0.191495420000     0.282441450000     0.382381620000     3.17662    
Zn1      Zn     0.191495420000     0.282441450000     0.882381620000     3.17662    
Zn1      Zn     0.191495420000     0.782441450000     0.382381620000     3.17662    
Zn1      Zn     0.191495420000     0.782441450000     0.882381620000     3.17662    
Zn1      Zn     0.691495420000     0.282441450000     0.382381620000     3.17662    
Zn1      Zn     0.691495420000     0.282441450000     0.882381620000     3.17662    
Zn1      Zn     0.691495420000     0.782441450000     0.382381620000     3.17662    
Zn1      Zn     0.691495420000     0.782441450000     0.882381620000     3.17662    
Zn2      Zn     0.202941600000     0.316103815000     0.118008165000    -0.004754   
Zn2      Zn     0.202941600000     0.316103815000     0.618008165000    -0.004754   
Zn2      Zn     0.202941600000     0.816103815000     0.118008165000    -0.004754   
Zn2      Zn     0.202941600000     0.816103815000     0.618008165000    -0.004754   
Zn2      Zn     0.702941600000     0.316103815000     0.118008165000    -0.004754   
Zn2      Zn     0.702941600000     0.316103815000     0.618008165000    -0.004754   
Zn2      Zn     0.702941600000     0.816103815000     0.118008165000    -0.004754   
Zn2      Zn     0.702941600000     0.816103815000     0.618008165000    -0.004754   
Zn3      Zn     0.225722550000     0.290774500000     0.080261505000     0.014675   
Zn3      Zn     0.225722550000     0.290774500000     0.580261505000     0.014675   
Zn3      Zn     0.225722550000     0.790774500000     0.080261505000     0.014675   
Zn3      Zn     0.225722550000     0.790774500000     0.580261505000     0.014675   
Zn3      Zn     0.725722550000     0.290774500000     0.080261505000     0.014675   
Zn3      Zn     0.725722550000     0.290774500000     0.580261505000     0.014675   
Zn3      Zn     0.725722550000     0.790774500000     0.080261505000     0.014675   
Zn3      Zn     0.725722550000     0.790774500000     0.580261505000     0.014675   
Zn4      Zn     0.497042900000     0.079782970000     0.369833320000     0.067764   
Zn4      Zn     0.497042900000     0.079782970000     0.869833320000     0.067764   
Zn4      Zn     0.497042900000     0.579782970000     0.369833320000     0.067764   
Zn4      Zn     0.497042900000     0.579782970000     0.869833320000     0.067764   
Zn4      Zn     0.997042900000     0.079782970000     0.369833320000     0.067764   
Zn4      Zn     0.997042900000     0.079782970000     0.869833320000     0.067764   
Zn4      Zn     0.997042900000     0.579782970000     0.369833320000     0.067764   
Zn4      Zn     0.997042900000     0.579782970000     0.869833320000     0.067764   
Zn5      Zn     0.447005870000     0.103462645000     0.351109850000     0.079102   
Zn5      Zn     0.447005870000     0.103462645000     0.851109850000     0.079102   
Zn5      Zn     0.447005870000     0.603462645000     0.351109850000     0.079102   
Zn5      Zn     0.447005870000     0.603462645000     0.851109850000     0.079102   
Zn5      Zn     0.947005870000     0.103462645000     0.351109850000     0.079102   
Zn5      Zn     0.947005870000     0.103462645000     0.851109850000     0.079102   
Zn5      Zn     0.947005870000     0.603462645000     0.351109850000     0.079102   
Zn5      Zn     0.947005870000     0.603462645000     0.851109850000     0.079102   
Zn6      Zn     0.081490635000     0.407697350000     0.223166950000     0.073163   
Zn6      Zn     0.081490635000     0.407697350000     0.723166950000     0.073163   
Zn6      Zn     0.081490635000     0.907697350000     0.223166950000     0.073163   
Zn6      Zn     0.081490635000     0.907697350000     0.723166950000     0.073163   
Zn6      Zn     0.581490635000     0.407697350000     0.223166950000     0.073163   
Zn6      Zn     0.581490635000     0.407697350000     0.723166950000     0.073163   
Zn6      Zn     0.581490635000     0.907697350000     0.223166950000     0.073163   
Zn6      Zn     0.581490635000     0.907697350000     0.723166950000     0.073163   
Zn7      Zn     0.082191065000     0.465274065000     0.219292910000     0.045473   
Zn7      Zn     0.082191065000     0.465274065000     0.719292910000     0.045473   
Zn7      Zn     0.082191065000     0.965274065000     0.219292910000     0.045473   
Zn7      Zn     0.082191065000     0.965274065000     0.719292910000     0.045473   
Zn7      Zn     0.582191065000     0.465274065000     0.219292910000     0.045473   
Zn7      Zn     0.582191065000     0.465274065000     0.719292910000     0.045473   
Zn7      Zn     0.582191065000     0.965274065000     0.219292910000     0.045473   
Zn7      Zn     0.582191065000     0.965274065000     0.719292910000     0.045473   
Zn8      Zn     0.436829120000     0.066647330000     0.122158060000     0.024935   
Zn8      Zn     0.436829120000     0.066647330000     0.622158060000     0.024935   
Zn8      Zn     0.436829120000     0.566647330000     0.122158060000     0.024935   
Zn8      Zn     0.436829120000     0.566647330000     0.622158060000     0.024935   
Zn8      Zn     0.936829120000     0.066647330000     0.122158060000     0.024935   
Zn8      Zn     0.936829120000     0.066647330000     0.622158060000     0.024935   
Zn8      Zn     0.936829120000     0.566647330000     0.122158060000     0.024935   
Zn8      Zn     0.936829120000     0.566647330000     0.622158060000     0.024935   
Zn9      Zn     0.476412950000     0.062593260000     0.089392595000    -0.139023   
Zn9      Zn     0.476412950000     0.062593260000     0.589392595000    -0.139023   
Zn9      Zn     0.476412950000     0.562593260000     0.089392595000    -0.139023   
Zn9      Zn     0.476412950000     0.562593260000     0.589392595000    -0.139023   
Zn9      Zn     0.976412950000     0.062593260000     0.089392595000    -0.139023   
Zn9      Zn     0.976412950000     0.062593260000     0.589392595000    -0.139023   
Zn9      Zn     0.976412950000     0.562593260000     0.089392595000    -0.139023   
Zn9      Zn     0.976412950000     0.562593260000     0.589392595000    -0.139023   
Zn10     Zn     0.321859500000     0.190245820000     0.481642850000    -0.003603   
Zn10     Zn     0.321859500000     0.190245820000     0.981642850000    -0.003603   
Zn10     Zn     0.321859500000     0.690245820000     0.481642850000    -0.003603   
Zn10     Zn     0.321859500000     0.690245820000     0.981642850000    -0.003603   
Zn10     Zn     0.821859500000     0.190245820000     0.481642850000    -0.003603   
Zn10     Zn     0.821859500000     0.190245820000     0.981642850000    -0.003603   
Zn10     Zn     0.821859500000     0.690245820000     0.481642850000    -0.003603   
Zn10     Zn     0.821859500000     0.690245820000     0.981642850000    -0.003603   
Zn11     Zn     0.315953435000     0.215098890000     0.023311540000     0.002701   
Zn11     Zn     0.315953435000     0.215098890000     0.523311540000     0.002701   
Zn11     Zn     0.315953435000     0.715098890000     0.023311540000     0.002701   
Zn11     Zn     0.315953435000     0.715098890000     0.523311540000     0.002701   
Zn11     Zn     0.815953435000     0.215098890000     0.023311540000     0.002701   
Zn11     Zn     0.815953435000     0.215098890000     0.523311540000     0.002701   
Zn11     Zn     0.815953435000     0.715098890000     0.023311540000     0.002701   
Zn11     Zn     0.815953435000     0.715098890000     0.523311540000     0.002701   
H12      H      0.082934230000     0.366730300000     0.261550250000     0.031918   
H12      H      0.082934230000     0.366730300000     0.761550250000     0.031918   
H12      H      0.082934230000     0.866730300000     0.261550250000     0.031918   
H12      H      0.082934230000     0.866730300000     0.761550250000     0.031918   
H12      H      0.582934230000     0.366730300000     0.261550250000     0.031918   
H12      H      0.582934230000     0.366730300000     0.761550250000     0.031918   
H12      H      0.582934230000     0.866730300000     0.261550250000     0.031918   
H12      H      0.582934230000     0.866730300000     0.761550250000     0.031918   
H13      H      0.136785210000     0.376701400000     0.285987230000     0.049416   
H13      H      0.136785210000     0.376701400000     0.785987230000     0.049416   
H13      H      0.136785210000     0.876701400000     0.285987230000     0.049416   
H13      H      0.136785210000     0.876701400000     0.785987230000     0.049416   
H13      H      0.636785210000     0.376701400000     0.285987230000     0.049416   
H13      H      0.636785210000     0.376701400000     0.785987230000     0.049416   
H13      H      0.636785210000     0.876701400000     0.285987230000     0.049416   
H13      H      0.636785210000     0.876701400000     0.785987230000     0.049416   
H14      H      0.098867225000     0.402277150000     0.297092675000     0.029735   
H14      H      0.098867225000     0.402277150000     0.797092675000     0.029735   
H14      H      0.098867225000     0.902277150000     0.297092675000     0.029735   
H14      H      0.098867225000     0.902277150000     0.797092675000     0.029735   
H14      H      0.598867225000     0.402277150000     0.297092675000     0.029735   
H14      H      0.598867225000     0.402277150000     0.797092675000     0.029735   
H14      H      0.598867225000     0.902277150000     0.297092675000     0.029735   
H14      H      0.598867225000     0.902277150000     0.797092675000     0.029735   
H15      H      0.120847730000     0.341152600000     0.250444530000     0.044854   
H15      H      0.120847730000     0.341152600000     0.750444530000     0.044854   
H15      H      0.120847730000     0.841152600000     0.250444530000     0.044854   
H15      H      0.120847730000     0.841152600000     0.750444530000     0.044854   
H15      H      0.620847730000     0.341152600000     0.250444530000     0.044854   
H15      H      0.620847730000     0.341152600000     0.750444530000     0.044854   
H15      H      0.620847730000     0.841152600000     0.250444530000     0.044854   
H15      H      0.620847730000     0.841152600000     0.750444530000     0.044854   
H16      H      0.154782725000     0.350824325000     0.173794500000     0.090042   
H16      H      0.154782725000     0.350824325000     0.673794500000     0.090042   
H16      H      0.154782725000     0.850824325000     0.173794500000     0.090042   
H16      H      0.154782725000     0.850824325000     0.673794500000     0.090042   
H16      H      0.654782725000     0.350824325000     0.173794500000     0.090042   
H16      H      0.654782725000     0.350824325000     0.673794500000     0.090042   
H16      H      0.654782725000     0.850824325000     0.173794500000     0.090042   
H16      H      0.654782725000     0.850824325000     0.673794500000     0.090042   
H17      H      0.152461425000     0.349370900000     0.139372930000     0.222854   
H17      H      0.152461425000     0.349370900000     0.639372930000     0.222854   
H17      H      0.152461425000     0.849370900000     0.139372930000     0.222854   
H17      H      0.152461425000     0.849370900000     0.639372930000     0.222854   
H17      H      0.652461425000     0.349370900000     0.139372930000     0.222854   
H17      H      0.652461425000     0.349370900000     0.639372930000     0.222854   
H17      H      0.652461425000     0.849370900000     0.139372930000     0.222854   
H17      H      0.652461425000     0.849370900000     0.639372930000     0.222854   
H18      H      0.130121950000     0.468688150000     0.181179660000     0.060886   
H18      H      0.130121950000     0.468688150000     0.681179660000     0.060886   
H18      H      0.130121950000     0.968688150000     0.181179660000     0.060886   
H18      H      0.130121950000     0.968688150000     0.681179660000     0.060886   
H18      H      0.630121950000     0.468688150000     0.181179660000     0.060886   
H18      H      0.630121950000     0.468688150000     0.681179660000     0.060886   
H18      H      0.630121950000     0.968688150000     0.181179660000     0.060886   
H18      H      0.630121950000     0.968688150000     0.681179660000     0.060886   
H19      H      0.111458635000     0.453657600000     0.199873850000    -0.030406   
H19      H      0.111458635000     0.453657600000     0.699873850000    -0.030406   
H19      H      0.111458635000     0.953657600000     0.199873850000    -0.030406   
H19      H      0.111458635000     0.953657600000     0.699873850000    -0.030406   
H19      H      0.611458635000     0.453657600000     0.199873850000    -0.030406   
H19      H      0.611458635000     0.453657600000     0.699873850000    -0.030406   
H19      H      0.611458635000     0.953657600000     0.199873850000    -0.030406   
H19      H      0.611458635000     0.953657600000     0.699873850000    -0.030406   
H20      H      0.143424660000     0.464741000000     0.207025400000     0.034325   
H20      H      0.143424660000     0.464741000000     0.707025400000     0.034325   
H20      H      0.143424660000     0.964741000000     0.207025400000     0.034325   
H20      H      0.143424660000     0.964741000000     0.707025400000     0.034325   
H20      H      0.643424660000     0.464741000000     0.207025400000     0.034325   
H20      H      0.643424660000     0.464741000000     0.707025400000     0.034325   
H20      H      0.643424660000     0.964741000000     0.207025400000     0.034325   
H20      H      0.643424660000     0.964741000000     0.707025400000     0.034325   
H21      H      0.146002300000     0.416406125000     0.202532560000     0.071525   
H21      H      0.146002300000     0.416406125000     0.702532560000     0.071525   
H21      H      0.146002300000     0.916406125000     0.202532560000     0.071525   
H21      H      0.146002300000     0.916406125000     0.702532560000     0.071525   
H21      H      0.646002300000     0.416406125000     0.202532560000     0.071525   
H21      H      0.646002300000     0.416406125000     0.702532560000     0.071525   
H21      H      0.646002300000     0.916406125000     0.202532560000     0.071525   
H21      H      0.646002300000     0.916406125000     0.702532560000     0.071525   
H22      H      0.165466600000     0.431388500000     0.184665770000     0.048361   
H22      H      0.165466600000     0.431388500000     0.684665770000     0.048361   
H22      H      0.165466600000     0.931388500000     0.184665770000     0.048361   
H22      H      0.165466600000     0.931388500000     0.684665770000     0.048361   
H22      H      0.665466600000     0.431388500000     0.184665770000     0.048361   
H22      H      0.665466600000     0.431388500000     0.684665770000     0.048361   
H22      H      0.665466600000     0.931388500000     0.184665770000     0.048361   
H22      H      0.665466600000     0.931388500000     0.684665770000     0.048361   
H23      H      0.129671620000     0.429259200000     0.157635200000     0.072017   
H23      H      0.129671620000     0.429259200000     0.657635200000     0.072017   
H23      H      0.129671620000     0.929259200000     0.157635200000     0.072017   
H23      H      0.129671620000     0.929259200000     0.657635200000     0.072017   
H23      H      0.629671620000     0.429259200000     0.157635200000     0.072017   
H23      H      0.629671620000     0.429259200000     0.657635200000     0.072017   
H23      H      0.629671620000     0.929259200000     0.157635200000     0.072017   
H23      H      0.629671620000     0.929259200000     0.657635200000     0.072017   
H24      H      0.108860700000     0.415122650000     0.174307210000     0.002156   
H24      H      0.108860700000     0.415122650000     0.674307210000     0.002156   
H24      H      0.108860700000     0.915122650000     0.174307210000     0.002156   
H24      H      0.108860700000     0.915122650000     0.674307210000     0.002156   
H24      H      0.608860700000     0.415122650000     0.174307210000     0.002156   
H24      H      0.608860700000     0.415122650000     0.674307210000     0.002156   
H24      H      0.608860700000     0.915122650000     0.174307210000     0.002156   
H24      H      0.608860700000     0.915122650000     0.674307210000     0.002156   
H25      H      0.168448730000     0.405509175000     0.143268915000     0.00564    
H25      H      0.168448730000     0.405509175000     0.643268915000     0.00564    
H25      H      0.168448730000     0.905509175000     0.143268915000     0.00564    
H25      H      0.168448730000     0.905509175000     0.643268915000     0.00564    
H25      H      0.668448730000     0.405509175000     0.143268915000     0.00564    
H25      H      0.668448730000     0.405509175000     0.643268915000     0.00564    
H25      H      0.668448730000     0.905509175000     0.143268915000     0.00564    
H25      H      0.668448730000     0.905509175000     0.643268915000     0.00564    
H26      H      0.360260100000     0.174835450000     0.419562815000     0.063451   
H26      H      0.360260100000     0.174835450000     0.919562815000     0.063451   
H26      H      0.360260100000     0.674835450000     0.419562815000     0.063451   
H26      H      0.360260100000     0.674835450000     0.919562815000     0.063451   
H26      H      0.860260100000     0.174835450000     0.419562815000     0.063451   
H26      H      0.860260100000     0.174835450000     0.919562815000     0.063451   
H26      H      0.860260100000     0.674835450000     0.419562815000     0.063451   
H26      H      0.860260100000     0.674835450000     0.919562815000     0.063451   
H27      H      0.390922750000     0.180972150000     0.471842050000     0.046444   
H27      H      0.390922750000     0.180972150000     0.971842050000     0.046444   
H27      H      0.390922750000     0.680972150000     0.471842050000     0.046444   
H27      H      0.390922750000     0.680972150000     0.971842050000     0.046444   
H27      H      0.890922750000     0.180972150000     0.471842050000     0.046444   
H27      H      0.890922750000     0.180972150000     0.971842050000     0.046444   
H27      H      0.890922750000     0.680972150000     0.471842050000     0.046444   
H27      H      0.890922750000     0.680972150000     0.971842050000     0.046444   
H28      H      0.411775350000     0.185225370000     0.443774670000     0.066606   
H28      H      0.411775350000     0.185225370000     0.943774670000     0.066606   
H28      H      0.411775350000     0.685225370000     0.443774670000     0.066606   
H28      H      0.411775350000     0.685225370000     0.943774670000     0.066606   
H28      H      0.911775350000     0.185225370000     0.443774670000     0.066606   
H28      H      0.911775350000     0.185225370000     0.943774670000     0.066606   
H28      H      0.911775350000     0.685225370000     0.443774670000     0.066606   
H28      H      0.911775350000     0.685225370000     0.943774670000     0.066606   
H29      H      0.327200500000     0.201244085000     0.433682450000     0.011154   
H29      H      0.327200500000     0.201244085000     0.933682450000     0.011154   
H29      H      0.327200500000     0.701244085000     0.433682450000     0.011154   
H29      H      0.327200500000     0.701244085000     0.933682450000     0.011154   
H29      H      0.827200500000     0.201244085000     0.433682450000     0.011154   
H29      H      0.827200500000     0.201244085000     0.933682450000     0.011154   
H29      H      0.827200500000     0.701244085000     0.433682450000     0.011154   
H29      H      0.827200500000     0.701244085000     0.933682450000     0.011154   
H30      H      0.343661800000     0.010965825000     0.136218280000     0.0076     
H30      H      0.343661800000     0.010965825000     0.636218280000     0.0076     
H30      H      0.343661800000     0.510965825000     0.136218280000     0.0076     
H30      H      0.343661800000     0.510965825000     0.636218280000     0.0076     
H30      H      0.843661800000     0.010965825000     0.136218280000     0.0076     
H30      H      0.843661800000     0.010965825000     0.636218280000     0.0076     
H30      H      0.843661800000     0.510965825000     0.136218280000     0.0076     
H30      H      0.843661800000     0.510965825000     0.636218280000     0.0076     
H31      H      0.312014430000     0.331831425000     0.067893535000     0.066424   
H31      H      0.312014430000     0.331831425000     0.567893535000     0.066424   
H31      H      0.312014430000     0.831831425000     0.067893535000     0.066424   
H31      H      0.312014430000     0.831831425000     0.567893535000     0.066424   
H31      H      0.812014430000     0.331831425000     0.067893535000     0.066424   
H31      H      0.812014430000     0.331831425000     0.567893535000     0.066424   
H31      H      0.812014430000     0.831831425000     0.067893535000     0.066424   
H31      H      0.812014430000     0.831831425000     0.567893535000     0.066424   
H32      H      0.383152300000     0.437963070000     0.094445815000     0.058165   
H32      H      0.383152300000     0.437963070000     0.594445815000     0.058165   
H32      H      0.383152300000     0.937963070000     0.094445815000     0.058165   
H32      H      0.383152300000     0.937963070000     0.594445815000     0.058165   
H32      H      0.883152300000     0.437963070000     0.094445815000     0.058165   
H32      H      0.883152300000     0.437963070000     0.594445815000     0.058165   
H32      H      0.883152300000     0.937963070000     0.094445815000     0.058165   
H32      H      0.883152300000     0.937963070000     0.594445815000     0.058165   
H33      H      0.272295835000     0.403933300000     0.110078140000     0.076508   
H33      H      0.272295835000     0.403933300000     0.610078140000     0.076508   
H33      H      0.272295835000     0.903933300000     0.110078140000     0.076508   
H33      H      0.272295835000     0.903933300000     0.610078140000     0.076508   
H33      H      0.772295835000     0.403933300000     0.110078140000     0.076508   
H33      H      0.772295835000     0.403933300000     0.610078140000     0.076508   
H33      H      0.772295835000     0.903933300000     0.110078140000     0.076508   
H33      H      0.772295835000     0.903933300000     0.610078140000     0.076508   
H34      H      0.352738320000     0.473395975000     0.163630975000     0.004675   
H34      H      0.352738320000     0.473395975000     0.663630975000     0.004675   
H34      H      0.352738320000     0.973395975000     0.163630975000     0.004675   
H34      H      0.352738320000     0.973395975000     0.663630975000     0.004675   
H34      H      0.852738320000     0.473395975000     0.163630975000     0.004675   
H34      H      0.852738320000     0.473395975000     0.663630975000     0.004675   
H34      H      0.852738320000     0.973395975000     0.163630975000     0.004675   
H34      H      0.852738320000     0.973395975000     0.663630975000     0.004675   
H35      H      0.353799500000     0.440006900000     0.154271960000    -0.003476   
H35      H      0.353799500000     0.440006900000     0.654271960000    -0.003476   
H35      H      0.353799500000     0.940006900000     0.154271960000    -0.003476   
H35      H      0.353799500000     0.940006900000     0.654271960000    -0.003476   
H35      H      0.853799500000     0.440006900000     0.154271960000    -0.003476   
H35      H      0.853799500000     0.440006900000     0.654271960000    -0.003476   
H35      H      0.853799500000     0.940006900000     0.154271960000    -0.003476   
H35      H      0.853799500000     0.940006900000     0.654271960000    -0.003476   
H36      H      0.316078215000     0.431461335000     0.172723935000     0.090001   
H36      H      0.316078215000     0.431461335000     0.672723935000     0.090001   
H36      H      0.316078215000     0.931461335000     0.172723935000     0.090001   
H36      H      0.316078215000     0.931461335000     0.672723935000     0.090001   
H36      H      0.816078215000     0.431461335000     0.172723935000     0.090001   
H36      H      0.816078215000     0.431461335000     0.672723935000     0.090001   
H36      H      0.816078215000     0.931461335000     0.172723935000     0.090001   
H36      H      0.816078215000     0.931461335000     0.672723935000     0.090001   
H37      H      0.335996715000     0.449966550000     0.189919150000     0.050641   
H37      H      0.335996715000     0.449966550000     0.689919150000     0.050641   
H37      H      0.335996715000     0.949966550000     0.189919150000     0.050641   
H37      H      0.335996715000     0.949966550000     0.689919150000     0.050641   
H37      H      0.835996715000     0.449966550000     0.189919150000     0.050641   
H37      H      0.835996715000     0.449966550000     0.689919150000     0.050641   
H37      H      0.835996715000     0.949966550000     0.189919150000     0.050641   
H37      H      0.835996715000     0.949966550000     0.689919150000     0.050641   
H38      H      0.306802400000     0.465743275000     0.177256835000     0.051604   
H38      H      0.306802400000     0.465743275000     0.677256835000     0.051604   
H38      H      0.306802400000     0.965743275000     0.177256835000     0.051604   
H38      H      0.306802400000     0.965743275000     0.677256835000     0.051604   
H38      H      0.806802400000     0.465743275000     0.177256835000     0.051604   
H38      H      0.806802400000     0.465743275000     0.677256835000     0.051604   
H38      H      0.806802400000     0.965743275000     0.177256835000     0.051604   
H38      H      0.806802400000     0.965743275000     0.677256835000     0.051604   
H39      H      0.363985050000     0.339060200000     0.093018995000     0.017846   
H39      H      0.363985050000     0.339060200000     0.593018995000     0.017846   
H39      H      0.363985050000     0.839060200000     0.093018995000     0.017846   
H39      H      0.363985050000     0.839060200000     0.593018995000     0.017846   
H39      H      0.863985050000     0.339060200000     0.093018995000     0.017846   
H39      H      0.863985050000     0.339060200000     0.593018995000     0.017846   
H39      H      0.863985050000     0.839060200000     0.093018995000     0.017846   
H39      H      0.863985050000     0.839060200000     0.593018995000     0.017846   
H40      H      0.353527750000     0.366426380000     0.108764260000     0.003768   
H40      H      0.353527750000     0.366426380000     0.608764260000     0.003768   
H40      H      0.353527750000     0.866426380000     0.108764260000     0.003768   
H40      H      0.353527750000     0.866426380000     0.608764260000     0.003768   
H40      H      0.853527750000     0.366426380000     0.108764260000     0.003768   
H40      H      0.853527750000     0.366426380000     0.608764260000     0.003768   
H40      H      0.853527750000     0.866426380000     0.108764260000     0.003768   
H40      H      0.853527750000     0.866426380000     0.608764260000     0.003768   
H41      H      0.386552700000     0.390902580000     0.099753020000    -0.020937   
H41      H      0.386552700000     0.390902580000     0.599753020000    -0.020937   
H41      H      0.386552700000     0.890902580000     0.099753020000    -0.020937   
H41      H      0.386552700000     0.890902580000     0.599753020000    -0.020937   
H41      H      0.886552700000     0.390902580000     0.099753020000    -0.020937   
H41      H      0.886552700000     0.390902580000     0.599753020000    -0.020937   
H41      H      0.886552700000     0.890902580000     0.099753020000    -0.020937   
H41      H      0.886552700000     0.890902580000     0.599753020000    -0.020937   
H42      H      0.402938900000     0.358308200000     0.096711455000     0.023082   
H42      H      0.402938900000     0.358308200000     0.596711455000     0.023082   
H42      H      0.402938900000     0.858308200000     0.096711455000     0.023082   
H42      H      0.402938900000     0.858308200000     0.596711455000     0.023082   
H42      H      0.902938900000     0.358308200000     0.096711455000     0.023082   
H42      H      0.902938900000     0.358308200000     0.596711455000     0.023082   
H42      H      0.902938900000     0.858308200000     0.096711455000     0.023082   
H42      H      0.902938900000     0.858308200000     0.596711455000     0.023082   
H43      H      0.389695825000     0.376113650000     0.074737115000     0.078559   
H43      H      0.389695825000     0.376113650000     0.574737115000     0.078559   
H43      H      0.389695825000     0.876113650000     0.074737115000     0.078559   
H43      H      0.389695825000     0.876113650000     0.574737115000     0.078559   
H43      H      0.889695825000     0.376113650000     0.074737115000     0.078559   
H43      H      0.889695825000     0.376113650000     0.574737115000     0.078559   
H43      H      0.889695825000     0.876113650000     0.074737115000     0.078559   
H43      H      0.889695825000     0.876113650000     0.574737115000     0.078559   
H44      H      0.427019985000     0.435770850000     0.119999080000    -0.061048   
H44      H      0.427019985000     0.435770850000     0.619999080000    -0.061048   
H44      H      0.427019985000     0.935770850000     0.119999080000    -0.061048   
H44      H      0.427019985000     0.935770850000     0.619999080000    -0.061048   
H44      H      0.927019985000     0.435770850000     0.119999080000    -0.061048   
H44      H      0.927019985000     0.435770850000     0.619999080000    -0.061048   
H44      H      0.927019985000     0.935770850000     0.119999080000    -0.061048   
H44      H      0.927019985000     0.935770850000     0.619999080000    -0.061048   
H45      H      0.413425835000     0.458782500000     0.138506190000     0.137799   
H45      H      0.413425835000     0.458782500000     0.638506190000     0.137799   
H45      H      0.413425835000     0.958782500000     0.138506190000     0.137799   
H45      H      0.413425835000     0.958782500000     0.638506190000     0.137799   
H45      H      0.913425835000     0.458782500000     0.138506190000     0.137799   
H45      H      0.913425835000     0.458782500000     0.638506190000     0.137799   
H45      H      0.913425835000     0.958782500000     0.138506190000     0.137799   
H45      H      0.913425835000     0.958782500000     0.638506190000     0.137799   
H46      H      0.467168600000     0.461607450000     0.119666940000     0.245159   
H46      H      0.467168600000     0.461607450000     0.619666940000     0.245159   
H46      H      0.467168600000     0.961607450000     0.119666940000     0.245159   
H46      H      0.467168600000     0.961607450000     0.619666940000     0.245159   
H46      H      0.967168600000     0.461607450000     0.119666940000     0.245159   
H46      H      0.967168600000     0.461607450000     0.619666940000     0.245159   
H46      H      0.967168600000     0.961607450000     0.119666940000     0.245159   
H46      H      0.967168600000     0.961607450000     0.619666940000     0.245159   
H47      H      0.452429800000     0.483210980000     0.138937815000     0.209637   
H47      H      0.452429800000     0.483210980000     0.638937815000     0.209637   
H47      H      0.452429800000     0.983210980000     0.138937815000     0.209637   
H47      H      0.452429800000     0.983210980000     0.638937815000     0.209637   
H47      H      0.952429800000     0.483210980000     0.138937815000     0.209637   
H47      H      0.952429800000     0.483210980000     0.638937815000     0.209637   
H47      H      0.952429800000     0.983210980000     0.138937815000     0.209637   
H47      H      0.952429800000     0.983210980000     0.638937815000     0.209637   
H48      H      0.461416100000     0.449417550000     0.144419475000     0.046661   
H48      H      0.461416100000     0.449417550000     0.644419475000     0.046661   
H48      H      0.461416100000     0.949417550000     0.144419475000     0.046661   
H48      H      0.461416100000     0.949417550000     0.644419475000     0.046661   
H48      H      0.961416100000     0.449417550000     0.144419475000     0.046661   
H48      H      0.961416100000     0.449417550000     0.644419475000     0.046661   
H48      H      0.961416100000     0.949417550000     0.144419475000     0.046661   
H48      H      0.961416100000     0.949417550000     0.644419475000     0.046661   
H49      H      0.268725350000     0.360999750000     0.135241300000     0.029913   
H49      H      0.268725350000     0.360999750000     0.635241300000     0.029913   
H49      H      0.268725350000     0.860999750000     0.135241300000     0.029913   
H49      H      0.268725350000     0.860999750000     0.635241300000     0.029913   
H49      H      0.768725350000     0.360999750000     0.135241300000     0.029913   
H49      H      0.768725350000     0.360999750000     0.635241300000     0.029913   
H49      H      0.768725350000     0.860999750000     0.135241300000     0.029913   
H49      H      0.768725350000     0.860999750000     0.635241300000     0.029913   
H50      H      0.255214400000     0.331481070000     0.125567500000    -0.001532   
H50      H      0.255214400000     0.331481070000     0.625567500000    -0.001532   
H50      H      0.255214400000     0.831481070000     0.125567500000    -0.001532   
H50      H      0.255214400000     0.831481070000     0.625567500000    -0.001532   
H50      H      0.755214400000     0.331481070000     0.125567500000    -0.001532   
H50      H      0.755214400000     0.331481070000     0.625567500000    -0.001532   
H50      H      0.755214400000     0.831481070000     0.125567500000    -0.001532   
H50      H      0.755214400000     0.831481070000     0.625567500000    -0.001532   
H51      H      0.209432150000     0.354089700000     0.132973640000    -0.296751   
H51      H      0.209432150000     0.354089700000     0.632973640000    -0.296751   
H51      H      0.209432150000     0.854089700000     0.132973640000    -0.296751   
H51      H      0.209432150000     0.854089700000     0.632973640000    -0.296751   
H51      H      0.709432150000     0.354089700000     0.132973640000    -0.296751   
H51      H      0.709432150000     0.354089700000     0.632973640000    -0.296751   
H51      H      0.709432150000     0.854089700000     0.132973640000    -0.296751   
H51      H      0.709432150000     0.854089700000     0.632973640000    -0.296751   
H52      H      0.231244565000     0.346073750000     0.155005770000     0.05427    
H52      H      0.231244565000     0.346073750000     0.655005770000     0.05427    
H52      H      0.231244565000     0.846073750000     0.155005770000     0.05427    
H52      H      0.231244565000     0.846073750000     0.655005770000     0.05427    
H52      H      0.731244565000     0.346073750000     0.155005770000     0.05427    
H52      H      0.731244565000     0.346073750000     0.655005770000     0.05427    
H52      H      0.731244565000     0.846073750000     0.155005770000     0.05427    
H52      H      0.731244565000     0.846073750000     0.655005770000     0.05427    
H53      H      0.226160690000     0.379051330000     0.146267490000     0.06797    
H53      H      0.226160690000     0.379051330000     0.646267490000     0.06797    
H53      H      0.226160690000     0.879051330000     0.146267490000     0.06797    
H53      H      0.226160690000     0.879051330000     0.646267490000     0.06797    
H53      H      0.726160690000     0.379051330000     0.146267490000     0.06797    
H53      H      0.726160690000     0.379051330000     0.646267490000     0.06797    
H53      H      0.726160690000     0.879051330000     0.146267490000     0.06797    
H53      H      0.726160690000     0.879051330000     0.646267490000     0.06797    
H54      H      0.242421500000     0.223997680000     0.025528625000     0.050303   
H54      H      0.242421500000     0.223997680000     0.525528625000     0.050303   
H54      H      0.242421500000     0.723997680000     0.025528625000     0.050303   
H54      H      0.242421500000     0.723997680000     0.525528625000     0.050303   
H54      H      0.742421500000     0.223997680000     0.025528625000     0.050303   
H54      H      0.742421500000     0.223997680000     0.525528625000     0.050303   
H54      H      0.742421500000     0.723997680000     0.025528625000     0.050303   
H54      H      0.742421500000     0.723997680000     0.525528625000     0.050303   
H55      H      0.270120920000     0.238644375000     0.075126990000     0.0588     
H55      H      0.270120920000     0.238644375000     0.575126990000     0.0588     
H55      H      0.270120920000     0.738644375000     0.075126990000     0.0588     
H55      H      0.270120920000     0.738644375000     0.575126990000     0.0588     
H55      H      0.770120920000     0.238644375000     0.075126990000     0.0588     
H55      H      0.770120920000     0.238644375000     0.575126990000     0.0588     
H55      H      0.770120920000     0.738644375000     0.075126990000     0.0588     
H55      H      0.770120920000     0.738644375000     0.575126990000     0.0588     
H56      H      0.218265565000     0.254504800000     0.050405050000     0.072063   
H56      H      0.218265565000     0.254504800000     0.550405050000     0.072063   
H56      H      0.218265565000     0.754504800000     0.050405050000     0.072063   
H56      H      0.218265565000     0.754504800000     0.550405050000     0.072063   
H56      H      0.718265565000     0.254504800000     0.050405050000     0.072063   
H56      H      0.718265565000     0.254504800000     0.550405050000     0.072063   
H56      H      0.718265565000     0.754504800000     0.050405050000     0.072063   
H56      H      0.718265565000     0.754504800000     0.550405050000     0.072063   
H57      H      0.327876420000     0.274012800000     0.053077480000     0.076591   
H57      H      0.327876420000     0.274012800000     0.553077480000     0.076591   
H57      H      0.327876420000     0.774012800000     0.053077480000     0.076591   
H57      H      0.327876420000     0.774012800000     0.553077480000     0.076591   
H57      H      0.827876420000     0.274012800000     0.053077480000     0.076591   
H57      H      0.827876420000     0.274012800000     0.553077480000     0.076591   
H57      H      0.827876420000     0.774012800000     0.053077480000     0.076591   
H57      H      0.827876420000     0.774012800000     0.553077480000     0.076591   
H58      H      0.035328640000     0.187071385000     0.391218575000     0.052664   
H58      H      0.035328640000     0.187071385000     0.891218575000     0.052664   
H58      H      0.035328640000     0.687071385000     0.391218575000     0.052664   
H58      H      0.035328640000     0.687071385000     0.891218575000     0.052664   
H58      H      0.535328640000     0.187071385000     0.391218575000     0.052664   
H58      H      0.535328640000     0.187071385000     0.891218575000     0.052664   
H58      H      0.535328640000     0.687071385000     0.391218575000     0.052664   
H58      H      0.535328640000     0.687071385000     0.891218575000     0.052664   
H59      H      0.113676785000     0.233165770000     0.360454470000     0.046848   
H59      H      0.113676785000     0.233165770000     0.860454470000     0.046848   
H59      H      0.113676785000     0.733165770000     0.360454470000     0.046848   
H59      H      0.113676785000     0.733165770000     0.860454470000     0.046848   
H59      H      0.613676785000     0.233165770000     0.360454470000     0.046848   
H59      H      0.613676785000     0.233165770000     0.860454470000     0.046848   
H59      H      0.613676785000     0.733165770000     0.360454470000     0.046848   
H59      H      0.613676785000     0.733165770000     0.860454470000     0.046848   
H60      H      0.483474200000     0.141556600000     0.426941200000     0.054073   
H60      H      0.483474200000     0.141556600000     0.926941200000     0.054073   
H60      H      0.483474200000     0.641556600000     0.426941200000     0.054073   
H60      H      0.483474200000     0.641556600000     0.926941200000     0.054073   
H60      H      0.983474200000     0.141556600000     0.426941200000     0.054073   
H60      H      0.983474200000     0.141556600000     0.926941200000     0.054073   
H60      H      0.983474200000     0.641556600000     0.426941200000     0.054073   
H60      H      0.983474200000     0.641556600000     0.926941200000     0.054073   
H61      H      0.164417150000     0.283000800000     0.327614515000     0.050752   
H61      H      0.164417150000     0.283000800000     0.827614515000     0.050752   
H61      H      0.164417150000     0.783000800000     0.327614515000     0.050752   
H61      H      0.164417150000     0.783000800000     0.827614515000     0.050752   
H61      H      0.664417150000     0.283000800000     0.327614515000     0.050752   
H61      H      0.664417150000     0.283000800000     0.827614515000     0.050752   
H61      H      0.664417150000     0.783000800000     0.327614515000     0.050752   
H61      H      0.664417150000     0.783000800000     0.827614515000     0.050752   
H62      H      0.122082875000     0.101605190000     0.399476600000     0.050567   
H62      H      0.122082875000     0.101605190000     0.899476600000     0.050567   
H62      H      0.122082875000     0.601605190000     0.399476600000     0.050567   
H62      H      0.122082875000     0.601605190000     0.899476600000     0.050567   
H62      H      0.622082875000     0.101605190000     0.399476600000     0.050567   
H62      H      0.622082875000     0.101605190000     0.899476600000     0.050567   
H62      H      0.622082875000     0.601605190000     0.399476600000     0.050567   
H62      H      0.622082875000     0.601605190000     0.899476600000     0.050567   
H63      H      0.106121885000     0.099705755000     0.422751400000     0.053891   
H63      H      0.106121885000     0.099705755000     0.922751400000     0.053891   
H63      H      0.106121885000     0.599705755000     0.422751400000     0.053891   
H63      H      0.106121885000     0.599705755000     0.922751400000     0.053891   
H63      H      0.606121885000     0.099705755000     0.422751400000     0.053891   
H63      H      0.606121885000     0.099705755000     0.922751400000     0.053891   
H63      H      0.606121885000     0.599705755000     0.422751400000     0.053891   
H63      H      0.606121885000     0.599705755000     0.922751400000     0.053891   
H64      H      0.093853200000     0.083387710000     0.399906000000     0.046612   
H64      H      0.093853200000     0.083387710000     0.899906000000     0.046612   
H64      H      0.093853200000     0.583387710000     0.399906000000     0.046612   
H64      H      0.093853200000     0.583387710000     0.899906000000     0.046612   
H64      H      0.593853200000     0.083387710000     0.399906000000     0.046612   
H64      H      0.593853200000     0.083387710000     0.899906000000     0.046612   
H64      H      0.593853200000     0.583387710000     0.399906000000     0.046612   
H64      H      0.593853200000     0.583387710000     0.899906000000     0.046612   
H65      H      0.038774780000     0.231174840000     0.287463900000     0.066488   
H65      H      0.038774780000     0.231174840000     0.787463900000     0.066488   
H65      H      0.038774780000     0.731174840000     0.287463900000     0.066488   
H65      H      0.038774780000     0.731174840000     0.787463900000     0.066488   
H65      H      0.538774780000     0.231174840000     0.287463900000     0.066488   
H65      H      0.538774780000     0.231174840000     0.787463900000     0.066488   
H65      H      0.538774780000     0.731174840000     0.287463900000     0.066488   
H65      H      0.538774780000     0.731174840000     0.787463900000     0.066488   
H66      H      0.050548830000     0.262438600000     0.285966650000    -0.000252   
H66      H      0.050548830000     0.262438600000     0.785966650000    -0.000252   
H66      H      0.050548830000     0.762438600000     0.285966650000    -0.000252   
H66      H      0.050548830000     0.762438600000     0.785966650000    -0.000252   
H66      H      0.550548830000     0.262438600000     0.285966650000    -0.000252   
H66      H      0.550548830000     0.262438600000     0.785966650000    -0.000252   
H66      H      0.550548830000     0.762438600000     0.285966650000    -0.000252   
H66      H      0.550548830000     0.762438600000     0.785966650000    -0.000252   
H67      H      0.069047150000     0.234077550000     0.275428600000     0.038661   
H67      H      0.069047150000     0.234077550000     0.775428600000     0.038661   
H67      H      0.069047150000     0.734077550000     0.275428600000     0.038661   
H67      H      0.069047150000     0.734077550000     0.775428600000     0.038661   
H67      H      0.569047150000     0.234077550000     0.275428600000     0.038661   
H67      H      0.569047150000     0.234077550000     0.775428600000     0.038661   
H67      H      0.569047150000     0.734077550000     0.275428600000     0.038661   
H67      H      0.569047150000     0.734077550000     0.775428600000     0.038661   
H68      H      0.132243550000     0.140005870000     0.386084450000     0.032986   
H68      H      0.132243550000     0.140005870000     0.886084450000     0.032986   
H68      H      0.132243550000     0.640005870000     0.386084450000     0.032986   
H68      H      0.132243550000     0.640005870000     0.886084450000     0.032986   
H68      H      0.632243550000     0.140005870000     0.386084450000     0.032986   
H68      H      0.632243550000     0.140005870000     0.886084450000     0.032986   
H68      H      0.632243550000     0.640005870000     0.386084450000     0.032986   
H68      H      0.632243550000     0.640005870000     0.886084450000     0.032986   
H69      H      0.115378895000     0.120714665000     0.366832225000     0.003609   
H69      H      0.115378895000     0.120714665000     0.866832225000     0.003609   
H69      H      0.115378895000     0.620714665000     0.366832225000     0.003609   
H69      H      0.115378895000     0.620714665000     0.866832225000     0.003609   
H69      H      0.615378895000     0.120714665000     0.366832225000     0.003609   
H69      H      0.615378895000     0.120714665000     0.866832225000     0.003609   
H69      H      0.615378895000     0.620714665000     0.366832225000     0.003609   
H69      H      0.615378895000     0.620714665000     0.866832225000     0.003609   
H70      H      0.116599120000     0.154880880000     0.363837150000    -0.006004   
H70      H      0.116599120000     0.154880880000     0.863837150000    -0.006004   
H70      H      0.116599120000     0.654880880000     0.363837150000    -0.006004   
H70      H      0.116599120000     0.654880880000     0.863837150000    -0.006004   
H70      H      0.616599120000     0.154880880000     0.363837150000    -0.006004   
H70      H      0.616599120000     0.154880880000     0.863837150000    -0.006004   
H70      H      0.616599120000     0.654880880000     0.363837150000    -0.006004   
H70      H      0.616599120000     0.654880880000     0.863837150000    -0.006004   
H71      H      0.026114580000     0.213794440000     0.316933125000     0.049609   
H71      H      0.026114580000     0.213794440000     0.816933125000     0.049609   
H71      H      0.026114580000     0.713794440000     0.316933125000     0.049609   
H71      H      0.026114580000     0.713794440000     0.816933125000     0.049609   
H71      H      0.526114580000     0.213794440000     0.316933125000     0.049609   
H71      H      0.526114580000     0.213794440000     0.816933125000     0.049609   
H71      H      0.526114580000     0.713794440000     0.316933125000     0.049609   
H71      H      0.526114580000     0.713794440000     0.816933125000     0.049609   
H72      H      0.049140455000     0.190825050000     0.304071725000     0.05061    
H72      H      0.049140455000     0.190825050000     0.804071725000     0.05061    
H72      H      0.049140455000     0.690825050000     0.304071725000     0.05061    
H72      H      0.049140455000     0.690825050000     0.804071725000     0.05061    
H72      H      0.549140455000     0.190825050000     0.304071725000     0.05061    
H72      H      0.549140455000     0.190825050000     0.804071725000     0.05061    
H72      H      0.549140455000     0.690825050000     0.304071725000     0.05061    
H72      H      0.549140455000     0.690825050000     0.804071725000     0.05061    
H73      H      0.043820485000     0.187682660000     0.330517025000     0.051076   
H73      H      0.043820485000     0.187682660000     0.830517025000     0.051076   
H73      H      0.043820485000     0.687682660000     0.330517025000     0.051076   
H73      H      0.043820485000     0.687682660000     0.830517025000     0.051076   
H73      H      0.543820485000     0.187682660000     0.330517025000     0.051076   
H73      H      0.543820485000     0.187682660000     0.830517025000     0.051076   
H73      H      0.543820485000     0.687682660000     0.330517025000     0.051076   
H73      H      0.543820485000     0.687682660000     0.830517025000     0.051076   
H74      H      0.044785240000     0.475509735000     0.151945665000     0.03633    
H74      H      0.044785240000     0.475509735000     0.651945665000     0.03633    
H74      H      0.044785240000     0.975509735000     0.151945665000     0.03633    
H74      H      0.044785240000     0.975509735000     0.651945665000     0.03633    
H74      H      0.544785240000     0.475509735000     0.151945665000     0.03633    
H74      H      0.544785240000     0.475509735000     0.651945665000     0.03633    
H74      H      0.544785240000     0.975509735000     0.151945665000     0.03633    
H74      H      0.544785240000     0.975509735000     0.651945665000     0.03633    
H75      H      0.001759815000     0.484633200000     0.182728150000     0.030337   
H75      H      0.001759815000     0.484633200000     0.682728150000     0.030337   
H75      H      0.001759815000     0.984633200000     0.182728150000     0.030337   
H75      H      0.001759815000     0.984633200000     0.682728150000     0.030337   
H75      H      0.501759815000     0.484633200000     0.182728150000     0.030337   
H75      H      0.501759815000     0.484633200000     0.682728150000     0.030337   
H75      H      0.501759815000     0.984633200000     0.182728150000     0.030337   
H75      H      0.501759815000     0.984633200000     0.682728150000     0.030337   
H76      H      0.070653655000     0.499821950000     0.171249030000     0.042202   
H76      H      0.070653655000     0.499821950000     0.671249030000     0.042202   
H76      H      0.070653655000     0.999821950000     0.171249030000     0.042202   
H76      H      0.070653655000     0.999821950000     0.671249030000     0.042202   
H76      H      0.570653655000     0.499821950000     0.171249030000     0.042202   
H76      H      0.570653655000     0.499821950000     0.671249030000     0.042202   
H76      H      0.570653655000     0.999821950000     0.171249030000     0.042202   
H76      H      0.570653655000     0.999821950000     0.671249030000     0.042202   
H77      H      0.076614835000     0.045421840000     0.168207600000     0.045128   
H77      H      0.076614835000     0.045421840000     0.668207600000     0.045128   
H77      H      0.076614835000     0.545421840000     0.168207600000     0.045128   
H77      H      0.076614835000     0.545421840000     0.668207600000     0.045128   
H77      H      0.576614835000     0.045421840000     0.168207600000     0.045128   
H77      H      0.576614835000     0.045421840000     0.668207600000     0.045128   
H77      H      0.576614835000     0.545421840000     0.168207600000     0.045128   
H77      H      0.576614835000     0.545421840000     0.668207600000     0.045128   
H78      H      0.047186160000     0.053478955000     0.181951000000     0.068373   
H78      H      0.047186160000     0.053478955000     0.681951000000     0.068373   
H78      H      0.047186160000     0.553478955000     0.181951000000     0.068373   
H78      H      0.047186160000     0.553478955000     0.681951000000     0.068373   
H78      H      0.547186160000     0.053478955000     0.181951000000     0.068373   
H78      H      0.547186160000     0.053478955000     0.681951000000     0.068373   
H78      H      0.547186160000     0.553478955000     0.181951000000     0.068373   
H78      H      0.547186160000     0.553478955000     0.681951000000     0.068373   
H79      H      0.044606225000     0.039073290000     0.156660035000     0.072719   
H79      H      0.044606225000     0.039073290000     0.656660035000     0.072719   
H79      H      0.044606225000     0.539073290000     0.156660035000     0.072719   
H79      H      0.044606225000     0.539073290000     0.656660035000     0.072719   
H79      H      0.544606225000     0.039073290000     0.156660035000     0.072719   
H79      H      0.544606225000     0.039073290000     0.656660035000     0.072719   
H79      H      0.544606225000     0.539073290000     0.156660035000     0.072719   
H79      H      0.544606225000     0.539073290000     0.656660035000     0.072719   
H80      H      0.485105200000     0.491631700000     0.145310460000     0.080562   
H80      H      0.485105200000     0.491631700000     0.645310460000     0.080562   
H80      H      0.485105200000     0.991631700000     0.145310460000     0.080562   
H80      H      0.485105200000     0.991631700000     0.645310460000     0.080562   
H80      H      0.985105200000     0.491631700000     0.145310460000     0.080562   
H80      H      0.985105200000     0.491631700000     0.645310460000     0.080562   
H80      H      0.985105200000     0.991631700000     0.145310460000     0.080562   
H80      H      0.985105200000     0.991631700000     0.645310460000     0.080562   
H81      H      0.142479600000     0.148999525000     0.155219140000     0.036838   
H81      H      0.142479600000     0.148999525000     0.655219140000     0.036838   
H81      H      0.142479600000     0.648999525000     0.155219140000     0.036838   
H81      H      0.142479600000     0.648999525000     0.655219140000     0.036838   
H81      H      0.642479600000     0.148999525000     0.155219140000     0.036838   
H81      H      0.642479600000     0.148999525000     0.655219140000     0.036838   
H81      H      0.642479600000     0.648999525000     0.155219140000     0.036838   
H81      H      0.642479600000     0.648999525000     0.655219140000     0.036838   
H82      H      0.109075280000     0.139198900000     0.152091740000     0.030801   
H82      H      0.109075280000     0.139198900000     0.652091740000     0.030801   
H82      H      0.109075280000     0.639198900000     0.152091740000     0.030801   
H82      H      0.109075280000     0.639198900000     0.652091740000     0.030801   
H82      H      0.609075280000     0.139198900000     0.152091740000     0.030801   
H82      H      0.609075280000     0.139198900000     0.652091740000     0.030801   
H82      H      0.609075280000     0.639198900000     0.152091740000     0.030801   
H82      H      0.609075280000     0.639198900000     0.652091740000     0.030801   
H83      H      0.133868830000     0.126732050000     0.134827910000     0.048597   
H83      H      0.133868830000     0.126732050000     0.634827910000     0.048597   
H83      H      0.133868830000     0.626732050000     0.134827910000     0.048597   
H83      H      0.133868830000     0.626732050000     0.634827910000     0.048597   
H83      H      0.633868830000     0.126732050000     0.134827910000     0.048597   
H83      H      0.633868830000     0.126732050000     0.634827910000     0.048597   
H83      H      0.633868830000     0.626732050000     0.134827910000     0.048597   
H83      H      0.633868830000     0.626732050000     0.634827910000     0.048597   
H84      H      0.104054585000     0.160828265000     0.118355965000     0.05276    
H84      H      0.104054585000     0.160828265000     0.618355965000     0.05276    
H84      H      0.104054585000     0.660828265000     0.118355965000     0.05276    
H84      H      0.104054585000     0.660828265000     0.618355965000     0.05276    
H84      H      0.604054585000     0.160828265000     0.118355965000     0.05276    
H84      H      0.604054585000     0.160828265000     0.618355965000     0.05276    
H84      H      0.604054585000     0.660828265000     0.118355965000     0.05276    
H84      H      0.604054585000     0.660828265000     0.618355965000     0.05276    
H85      H      0.136641475000     0.170962700000     0.121295565000     0.051898   
H85      H      0.136641475000     0.170962700000     0.621295565000     0.051898   
H85      H      0.136641475000     0.670962700000     0.121295565000     0.051898   
H85      H      0.136641475000     0.670962700000     0.621295565000     0.051898   
H85      H      0.636641475000     0.170962700000     0.121295565000     0.051898   
H85      H      0.636641475000     0.170962700000     0.621295565000     0.051898   
H85      H      0.636641475000     0.670962700000     0.121295565000     0.051898   
H85      H      0.636641475000     0.670962700000     0.621295565000     0.051898   
H86      H      0.120710010000     0.194179670000     0.155539320000     0.052738   
H86      H      0.120710010000     0.194179670000     0.655539320000     0.052738   
H86      H      0.120710010000     0.694179670000     0.155539320000     0.052738   
H86      H      0.120710010000     0.694179670000     0.655539320000     0.052738   
H86      H      0.620710010000     0.194179670000     0.155539320000     0.052738   
H86      H      0.620710010000     0.194179670000     0.655539320000     0.052738   
H86      H      0.620710010000     0.694179670000     0.155539320000     0.052738   
H86      H      0.620710010000     0.694179670000     0.655539320000     0.052738   
H87      H      0.089058595000     0.187213465000     0.147985935000     0.050963   
H87      H      0.089058595000     0.187213465000     0.647985935000     0.050963   
H87      H      0.089058595000     0.687213465000     0.147985935000     0.050963   
H87      H      0.089058595000     0.687213465000     0.647985935000     0.050963   
H87      H      0.589058595000     0.187213465000     0.147985935000     0.050963   
H87      H      0.589058595000     0.187213465000     0.647985935000     0.050963   
H87      H      0.589058595000     0.687213465000     0.147985935000     0.050963   
H87      H      0.589058595000     0.687213465000     0.647985935000     0.050963   
H88      H      0.120185115000     0.215708700000     0.045717115000     0.025348   
H88      H      0.120185115000     0.215708700000     0.545717115000     0.025348   
H88      H      0.120185115000     0.715708700000     0.045717115000     0.025348   
H88      H      0.120185115000     0.715708700000     0.545717115000     0.025348   
H88      H      0.620185115000     0.215708700000     0.045717115000     0.025348   
H88      H      0.620185115000     0.215708700000     0.545717115000     0.025348   
H88      H      0.620185115000     0.715708700000     0.045717115000     0.025348   
H88      H      0.620185115000     0.715708700000     0.545717115000     0.025348   
H89      H      0.123354205000     0.238141250000     0.067196475000     0.027497   
H89      H      0.123354205000     0.238141250000     0.567196475000     0.027497   
H89      H      0.123354205000     0.738141250000     0.067196475000     0.027497   
H89      H      0.123354205000     0.738141250000     0.567196475000     0.027497   
H89      H      0.623354205000     0.238141250000     0.067196475000     0.027497   
H89      H      0.623354205000     0.238141250000     0.567196475000     0.027497   
H89      H      0.623354205000     0.738141250000     0.067196475000     0.027497   
H89      H      0.623354205000     0.738141250000     0.567196475000     0.027497   
H90      H      0.149543750000     0.213191300000     0.062475035000     0.047029   
H90      H      0.149543750000     0.213191300000     0.562475035000     0.047029   
H90      H      0.149543750000     0.713191300000     0.062475035000     0.047029   
H90      H      0.149543750000     0.713191300000     0.562475035000     0.047029   
H90      H      0.649543750000     0.213191300000     0.062475035000     0.047029   
H90      H      0.649543750000     0.213191300000     0.562475035000     0.047029   
H90      H      0.649543750000     0.713191300000     0.062475035000     0.047029   
H90      H      0.649543750000     0.713191300000     0.562475035000     0.047029   
H91      H      0.123478835000     0.201083065000     0.091147765000     0.058257   
H91      H      0.123478835000     0.201083065000     0.591147765000     0.058257   
H91      H      0.123478835000     0.701083065000     0.091147765000     0.058257   
H91      H      0.123478835000     0.701083065000     0.591147765000     0.058257   
H91      H      0.623478835000     0.201083065000     0.091147765000     0.058257   
H91      H      0.623478835000     0.201083065000     0.591147765000     0.058257   
H91      H      0.623478835000     0.701083065000     0.091147765000     0.058257   
H91      H      0.623478835000     0.701083065000     0.591147765000     0.058257   
H92      H      0.120728875000     0.178794235000     0.069998985000     0.061761   
H92      H      0.120728875000     0.178794235000     0.569998985000     0.061761   
H92      H      0.120728875000     0.678794235000     0.069998985000     0.061761   
H92      H      0.120728875000     0.678794235000     0.569998985000     0.061761   
H92      H      0.620728875000     0.178794235000     0.069998985000     0.061761   
H92      H      0.620728875000     0.178794235000     0.569998985000     0.061761   
H92      H      0.620728875000     0.678794235000     0.069998985000     0.061761   
H92      H      0.620728875000     0.678794235000     0.569998985000     0.061761   
H93      H      0.076245910000     0.200525800000     0.059210040000     0.063858   
H93      H      0.076245910000     0.200525800000     0.559210040000     0.063858   
H93      H      0.076245910000     0.700525800000     0.059210040000     0.063858   
H93      H      0.076245910000     0.700525800000     0.559210040000     0.063858   
H93      H      0.576245910000     0.200525800000     0.059210040000     0.063858   
H93      H      0.576245910000     0.200525800000     0.559210040000     0.063858   
H93      H      0.576245910000     0.700525800000     0.059210040000     0.063858   
H93      H      0.576245910000     0.700525800000     0.559210040000     0.063858   
H94      H      0.079887385000     0.225605860000     0.076628310000     0.060618   
H94      H      0.079887385000     0.225605860000     0.576628310000     0.060618   
H94      H      0.079887385000     0.725605860000     0.076628310000     0.060618   
H94      H      0.079887385000     0.725605860000     0.576628310000     0.060618   
H94      H      0.579887385000     0.225605860000     0.076628310000     0.060618   
H94      H      0.579887385000     0.225605860000     0.576628310000     0.060618   
H94      H      0.579887385000     0.725605860000     0.076628310000     0.060618   
H94      H      0.579887385000     0.725605860000     0.576628310000     0.060618   
H95      H      0.185652375000     0.206510065000     0.170322250000     0.028842   
H95      H      0.185652375000     0.206510065000     0.670322250000     0.028842   
H95      H      0.185652375000     0.706510065000     0.170322250000     0.028842   
H95      H      0.185652375000     0.706510065000     0.670322250000     0.028842   
H95      H      0.685652375000     0.206510065000     0.170322250000     0.028842   
H95      H      0.685652375000     0.206510065000     0.670322250000     0.028842   
H95      H      0.685652375000     0.706510065000     0.170322250000     0.028842   
H95      H      0.685652375000     0.706510065000     0.670322250000     0.028842   
H96      H      0.198223325000     0.234790535000     0.159655170000     0.03118    
H96      H      0.198223325000     0.234790535000     0.659655170000     0.03118    
H96      H      0.198223325000     0.734790535000     0.159655170000     0.03118    
H96      H      0.198223325000     0.734790535000     0.659655170000     0.03118    
H96      H      0.698223325000     0.234790535000     0.159655170000     0.03118    
H96      H      0.698223325000     0.234790535000     0.659655170000     0.03118    
H96      H      0.698223325000     0.734790535000     0.159655170000     0.03118    
H96      H      0.698223325000     0.734790535000     0.659655170000     0.03118    
H97      H      0.184007885000     0.237101020000     0.184339180000     0.050747   
H97      H      0.184007885000     0.237101020000     0.684339180000     0.050747   
H97      H      0.184007885000     0.737101020000     0.184339180000     0.050747   
H97      H      0.184007885000     0.737101020000     0.684339180000     0.050747   
H97      H      0.684007885000     0.237101020000     0.184339180000     0.050747   
H97      H      0.684007885000     0.237101020000     0.684339180000     0.050747   
H97      H      0.684007885000     0.737101020000     0.184339180000     0.050747   
H97      H      0.684007885000     0.737101020000     0.684339180000     0.050747   
H98      H      0.151840240000     0.257195770000     0.158517900000     0.049067   
H98      H      0.151840240000     0.257195770000     0.658517900000     0.049067   
H98      H      0.151840240000     0.757195770000     0.158517900000     0.049067   
H98      H      0.151840240000     0.757195770000     0.658517900000     0.049067   
H98      H      0.651840240000     0.257195770000     0.158517900000     0.049067   
H98      H      0.651840240000     0.257195770000     0.658517900000     0.049067   
H98      H      0.651840240000     0.757195770000     0.158517900000     0.049067   
H98      H      0.651840240000     0.757195770000     0.658517900000     0.049067   
H99      H      0.140191125000     0.228829400000     0.168548360000    -0.008616   
H99      H      0.140191125000     0.228829400000     0.668548360000    -0.008616   
H99      H      0.140191125000     0.728829400000     0.168548360000    -0.008616   
H99      H      0.140191125000     0.728829400000     0.668548360000    -0.008616   
H99      H      0.640191125000     0.228829400000     0.168548360000    -0.008616   
H99      H      0.640191125000     0.228829400000     0.668548360000    -0.008616   
H99      H      0.640191125000     0.728829400000     0.168548360000    -0.008616   
H99      H      0.640191125000     0.728829400000     0.668548360000    -0.008616   
H100     H      0.155833780000     0.202219600000     0.138587370000     0.030032   
H100     H      0.155833780000     0.202219600000     0.638587370000     0.030032   
H100     H      0.155833780000     0.702219600000     0.138587370000     0.030032   
H100     H      0.155833780000     0.702219600000     0.638587370000     0.030032   
H100     H      0.655833780000     0.202219600000     0.138587370000     0.030032   
H100     H      0.655833780000     0.202219600000     0.638587370000     0.030032   
H100     H      0.655833780000     0.702219600000     0.138587370000     0.030032   
H100     H      0.655833780000     0.702219600000     0.638587370000     0.030032   
H101     H      0.169022830000     0.227042400000     0.127417490000     0.02725    
H101     H      0.169022830000     0.227042400000     0.627417490000     0.02725    
H101     H      0.169022830000     0.727042400000     0.127417490000     0.02725    
H101     H      0.169022830000     0.727042400000     0.627417490000     0.02725    
H101     H      0.669022830000     0.227042400000     0.127417490000     0.02725    
H101     H      0.669022830000     0.227042400000     0.627417490000     0.02725    
H101     H      0.669022830000     0.727042400000     0.127417490000     0.02725    
H101     H      0.669022830000     0.727042400000     0.627417490000     0.02725    
H102     H      0.103368720000     0.110169115000     0.045010430000     0.016098   
H102     H      0.103368720000     0.110169115000     0.545010430000     0.016098   
H102     H      0.103368720000     0.610169115000     0.045010430000     0.016098   
H102     H      0.103368720000     0.610169115000     0.545010430000     0.016098   
H102     H      0.603368720000     0.110169115000     0.045010430000     0.016098   
H102     H      0.603368720000     0.110169115000     0.545010430000     0.016098   
H102     H      0.603368720000     0.610169115000     0.045010430000     0.016098   
H102     H      0.603368720000     0.610169115000     0.545010430000     0.016098   
H103     H      0.126014380000     0.134997085000     0.049933825000     0.038569   
H103     H      0.126014380000     0.134997085000     0.549933825000     0.038569   
H103     H      0.126014380000     0.634997085000     0.049933825000     0.038569   
H103     H      0.126014380000     0.634997085000     0.549933825000     0.038569   
H103     H      0.626014380000     0.134997085000     0.049933825000     0.038569   
H103     H      0.626014380000     0.134997085000     0.549933825000     0.038569   
H103     H      0.626014380000     0.634997085000     0.049933825000     0.038569   
H103     H      0.626014380000     0.634997085000     0.549933825000     0.038569   
H104     H      0.132781100000     0.103456930000     0.061391815000     0.03356    
H104     H      0.132781100000     0.103456930000     0.561391815000     0.03356    
H104     H      0.132781100000     0.603456930000     0.061391815000     0.03356    
H104     H      0.132781100000     0.603456930000     0.561391815000     0.03356    
H104     H      0.632781100000     0.103456930000     0.061391815000     0.03356    
H104     H      0.632781100000     0.103456930000     0.561391815000     0.03356    
H104     H      0.632781100000     0.603456930000     0.061391815000     0.03356    
H104     H      0.632781100000     0.603456930000     0.561391815000     0.03356    
H105     H      0.115370430000     0.137971600000     0.086099340000     0.034794   
H105     H      0.115370430000     0.137971600000     0.586099340000     0.034794   
H105     H      0.115370430000     0.637971600000     0.086099340000     0.034794   
H105     H      0.115370430000     0.637971600000     0.586099340000     0.034794   
H105     H      0.615370430000     0.137971600000     0.086099340000     0.034794   
H105     H      0.615370430000     0.137971600000     0.586099340000     0.034794   
H105     H      0.615370430000     0.637971600000     0.086099340000     0.034794   
H105     H      0.615370430000     0.637971600000     0.586099340000     0.034794   
H106     H      0.095190570000     0.111021900000     0.083146015000     0.039058   
H106     H      0.095190570000     0.111021900000     0.583146015000     0.039058   
H106     H      0.095190570000     0.611021900000     0.083146015000     0.039058   
H106     H      0.095190570000     0.611021900000     0.583146015000     0.039058   
H106     H      0.595190570000     0.111021900000     0.083146015000     0.039058   
H106     H      0.595190570000     0.111021900000     0.583146015000     0.039058   
H106     H      0.595190570000     0.611021900000     0.083146015000     0.039058   
H106     H      0.595190570000     0.611021900000     0.583146015000     0.039058   
H107     H      0.061794700000     0.135632470000     0.062017230000     0.077364   
H107     H      0.061794700000     0.135632470000     0.562017230000     0.077364   
H107     H      0.061794700000     0.635632470000     0.062017230000     0.077364   
H107     H      0.061794700000     0.635632470000     0.562017230000     0.077364   
H107     H      0.561794700000     0.135632470000     0.062017230000     0.077364   
H107     H      0.561794700000     0.135632470000     0.562017230000     0.077364   
H107     H      0.561794700000     0.635632470000     0.062017230000     0.077364   
H107     H      0.561794700000     0.635632470000     0.562017230000     0.077364   
H108     H      0.082893060000     0.159323110000     0.056798430000     0.057645   
H108     H      0.082893060000     0.159323110000     0.556798430000     0.057645   
H108     H      0.082893060000     0.659323110000     0.056798430000     0.057645   
H108     H      0.082893060000     0.659323110000     0.556798430000     0.057645   
H108     H      0.582893060000     0.159323110000     0.056798430000     0.057645   
H108     H      0.582893060000     0.159323110000     0.556798430000     0.057645   
H108     H      0.582893060000     0.659323110000     0.056798430000     0.057645   
H108     H      0.582893060000     0.659323110000     0.556798430000     0.057645   
H109     H      0.172862290000     0.267814700000     0.132211135000     0.09613    
H109     H      0.172862290000     0.267814700000     0.632211135000     0.09613    
H109     H      0.172862290000     0.767814700000     0.132211135000     0.09613    
H109     H      0.172862290000     0.767814700000     0.632211135000     0.09613    
H109     H      0.672862290000     0.267814700000     0.132211135000     0.09613    
H109     H      0.672862290000     0.267814700000     0.632211135000     0.09613    
H109     H      0.672862290000     0.767814700000     0.132211135000     0.09613    
H109     H      0.672862290000     0.767814700000     0.632211135000     0.09613    
H110     H      0.018858850000     0.129119890000     0.073877250000     0.062012   
H110     H      0.018858850000     0.129119890000     0.573877250000     0.062012   
H110     H      0.018858850000     0.629119890000     0.073877250000     0.062012   
H110     H      0.018858850000     0.629119890000     0.573877250000     0.062012   
H110     H      0.518858850000     0.129119890000     0.073877250000     0.062012   
H110     H      0.518858850000     0.129119890000     0.573877250000     0.062012   
H110     H      0.518858850000     0.629119890000     0.073877250000     0.062012   
H110     H      0.518858850000     0.629119890000     0.573877250000     0.062012   
H111     H      0.122127250000     0.293600000000     0.081872195000     0.05011    
H111     H      0.122127250000     0.293600000000     0.581872195000     0.05011    
H111     H      0.122127250000     0.793600000000     0.081872195000     0.05011    
H111     H      0.122127250000     0.793600000000     0.581872195000     0.05011    
H111     H      0.622127250000     0.293600000000     0.081872195000     0.05011    
H111     H      0.622127250000     0.293600000000     0.581872195000     0.05011    
H111     H      0.622127250000     0.793600000000     0.081872195000     0.05011    
H111     H      0.622127250000     0.793600000000     0.581872195000     0.05011    
H112     H      0.068928295000     0.100709430000     0.124130025000     0.052337   
H112     H      0.068928295000     0.100709430000     0.624130025000     0.052337   
H112     H      0.068928295000     0.600709430000     0.124130025000     0.052337   
H112     H      0.068928295000     0.600709430000     0.624130025000     0.052337   
H112     H      0.568928295000     0.100709430000     0.124130025000     0.052337   
H112     H      0.568928295000     0.100709430000     0.624130025000     0.052337   
H112     H      0.568928295000     0.600709430000     0.124130025000     0.052337   
H112     H      0.568928295000     0.600709430000     0.624130025000     0.052337   
H113     H      0.089847385000     0.282310200000     0.101743830000    -0.049975   
H113     H      0.089847385000     0.282310200000     0.601743830000    -0.049975   
H113     H      0.089847385000     0.782310200000     0.101743830000    -0.049975   
H113     H      0.089847385000     0.782310200000     0.601743830000    -0.049975   
H113     H      0.589847385000     0.282310200000     0.101743830000    -0.049975   
H113     H      0.589847385000     0.282310200000     0.601743830000    -0.049975   
H113     H      0.589847385000     0.782310200000     0.101743830000    -0.049975   
H113     H      0.589847385000     0.782310200000     0.601743830000    -0.049975   
H114     H      0.033089215000     0.154920770000     0.130517765000     0.501357   
H114     H      0.033089215000     0.154920770000     0.630517765000     0.501357   
H114     H      0.033089215000     0.654920770000     0.130517765000     0.501357   
H114     H      0.033089215000     0.654920770000     0.630517765000     0.501357   
H114     H      0.533089215000     0.154920770000     0.130517765000     0.501357   
H114     H      0.533089215000     0.154920770000     0.630517765000     0.501357   
H114     H      0.533089215000     0.654920770000     0.130517765000     0.501357   
H114     H      0.533089215000     0.654920770000     0.630517765000     0.501357   
H115     H      0.043161405000     0.199832500000     0.136726765000    -0.560126   
H115     H      0.043161405000     0.199832500000     0.636726765000    -0.560126   
H115     H      0.043161405000     0.699832500000     0.136726765000    -0.560126   
H115     H      0.043161405000     0.699832500000     0.636726765000    -0.560126   
H115     H      0.543161405000     0.199832500000     0.136726765000    -0.560126   
H115     H      0.543161405000     0.199832500000     0.636726765000    -0.560126   
H115     H      0.543161405000     0.699832500000     0.136726765000    -0.560126   
H115     H      0.543161405000     0.699832500000     0.636726765000    -0.560126   
H116     H      0.055258060000     0.253279100000     0.103464395000     0.15205    
H116     H      0.055258060000     0.253279100000     0.603464395000     0.15205    
H116     H      0.055258060000     0.753279100000     0.103464395000     0.15205    
H116     H      0.055258060000     0.753279100000     0.603464395000     0.15205    
H116     H      0.555258060000     0.253279100000     0.103464395000     0.15205    
H116     H      0.555258060000     0.253279100000     0.603464395000     0.15205    
H116     H      0.555258060000     0.753279100000     0.103464395000     0.15205    
H116     H      0.555258060000     0.753279100000     0.603464395000     0.15205    
H117     H      0.380643400000     0.152607000000     0.028931430000     0.052102   
H117     H      0.380643400000     0.152607000000     0.528931430000     0.052102   
H117     H      0.380643400000     0.652607000000     0.028931430000     0.052102   
H117     H      0.380643400000     0.652607000000     0.528931430000     0.052102   
H117     H      0.880643400000     0.152607000000     0.028931430000     0.052102   
H117     H      0.880643400000     0.152607000000     0.528931430000     0.052102   
H117     H      0.880643400000     0.652607000000     0.028931430000     0.052102   
H117     H      0.880643400000     0.652607000000     0.528931430000     0.052102   
H118     H      0.358543575000     0.165109200000     0.071313985000     0.065114   
H118     H      0.358543575000     0.165109200000     0.571313985000     0.065114   
H118     H      0.358543575000     0.665109200000     0.071313985000     0.065114   
H118     H      0.358543575000     0.665109200000     0.571313985000     0.065114   
H118     H      0.858543575000     0.165109200000     0.071313985000     0.065114   
H118     H      0.858543575000     0.165109200000     0.571313985000     0.065114   
H118     H      0.858543575000     0.665109200000     0.071313985000     0.065114   
H118     H      0.858543575000     0.665109200000     0.571313985000     0.065114   
H119     H      0.405972900000     0.110241040000     0.034482085000    -0.009018   
H119     H      0.405972900000     0.110241040000     0.534482085000    -0.009018   
H119     H      0.405972900000     0.610241040000     0.034482085000    -0.009018   
H119     H      0.405972900000     0.610241040000     0.534482085000    -0.009018   
H119     H      0.905972900000     0.110241040000     0.034482085000    -0.009018   
H119     H      0.905972900000     0.110241040000     0.534482085000    -0.009018   
H119     H      0.905972900000     0.610241040000     0.034482085000    -0.009018   
H119     H      0.905972900000     0.610241040000     0.534482085000    -0.009018   
H120     H      0.405364800000     0.172971950000     0.078120380000     0.023802   
H120     H      0.405364800000     0.172971950000     0.578120380000     0.023802   
H120     H      0.405364800000     0.672971950000     0.078120380000     0.023802   
H120     H      0.405364800000     0.672971950000     0.578120380000     0.023802   
H120     H      0.905364800000     0.172971950000     0.078120380000     0.023802   
H120     H      0.905364800000     0.172971950000     0.578120380000     0.023802   
H120     H      0.905364800000     0.672971950000     0.078120380000     0.023802   
H120     H      0.905364800000     0.672971950000     0.578120380000     0.023802   
H121     H      0.404878000000     0.142159050000     0.090358375000     0.00881    
H121     H      0.404878000000     0.142159050000     0.590358375000     0.00881    
H121     H      0.404878000000     0.642159050000     0.090358375000     0.00881    
H121     H      0.404878000000     0.642159050000     0.590358375000     0.00881    
H121     H      0.904878000000     0.142159050000     0.090358375000     0.00881    
H121     H      0.904878000000     0.142159050000     0.590358375000     0.00881    
H121     H      0.904878000000     0.642159050000     0.090358375000     0.00881    
H121     H      0.904878000000     0.642159050000     0.590358375000     0.00881    
H122     H      0.434197700000     0.150601760000     0.077985630000     0.03618    
H122     H      0.434197700000     0.150601760000     0.577985630000     0.03618    
H122     H      0.434197700000     0.650601760000     0.077985630000     0.03618    
H122     H      0.434197700000     0.650601760000     0.577985630000     0.03618    
H122     H      0.934197700000     0.150601760000     0.077985630000     0.03618    
H122     H      0.934197700000     0.150601760000     0.577985630000     0.03618    
H122     H      0.934197700000     0.650601760000     0.077985630000     0.03618    
H122     H      0.934197700000     0.650601760000     0.577985630000     0.03618    
H123     H      0.256744025000     0.231434180000     0.081755245000     0.044912   
H123     H      0.256744025000     0.231434180000     0.581755245000     0.044912   
H123     H      0.256744025000     0.731434180000     0.081755245000     0.044912   
H123     H      0.256744025000     0.731434180000     0.581755245000     0.044912   
H123     H      0.756744025000     0.231434180000     0.081755245000     0.044912   
H123     H      0.756744025000     0.231434180000     0.581755245000     0.044912   
H123     H      0.756744025000     0.731434180000     0.081755245000     0.044912   
H123     H      0.756744025000     0.731434180000     0.581755245000     0.044912   
H124     H      0.265085400000     0.277134925000     0.053726130000     0.051851   
H124     H      0.265085400000     0.277134925000     0.553726130000     0.051851   
H124     H      0.265085400000     0.777134925000     0.053726130000     0.051851   
H124     H      0.265085400000     0.777134925000     0.553726130000     0.051851   
H124     H      0.765085400000     0.277134925000     0.053726130000     0.051851   
H124     H      0.765085400000     0.277134925000     0.553726130000     0.051851   
H124     H      0.765085400000     0.777134925000     0.053726130000     0.051851   
H124     H      0.765085400000     0.777134925000     0.553726130000     0.051851   
H125     H      0.243825600000     0.247004135000     0.030054685000    -0.008598   
H125     H      0.243825600000     0.247004135000     0.530054685000    -0.008598   
H125     H      0.243825600000     0.747004135000     0.030054685000    -0.008598   
H125     H      0.243825600000     0.747004135000     0.530054685000    -0.008598   
H125     H      0.743825600000     0.247004135000     0.030054685000    -0.008598   
H125     H      0.743825600000     0.247004135000     0.530054685000    -0.008598   
H125     H      0.743825600000     0.747004135000     0.030054685000    -0.008598   
H125     H      0.743825600000     0.747004135000     0.530054685000    -0.008598   
H126     H      0.293367850000     0.203213550000     0.068027720000     0.048691   
H126     H      0.293367850000     0.203213550000     0.568027720000     0.048691   
H126     H      0.293367850000     0.703213550000     0.068027720000     0.048691   
H126     H      0.293367850000     0.703213550000     0.568027720000     0.048691   
H126     H      0.793367850000     0.203213550000     0.068027720000     0.048691   
H126     H      0.793367850000     0.203213550000     0.568027720000     0.048691   
H126     H      0.793367850000     0.703213550000     0.068027720000     0.048691   
H126     H      0.793367850000     0.703213550000     0.568027720000     0.048691   
H127     H      0.033191455000     0.000979655000     0.243387190000     0.045824   
H127     H      0.033191455000     0.000979655000     0.743387190000     0.045824   
H127     H      0.033191455000     0.500979655000     0.243387190000     0.045824   
H127     H      0.033191455000     0.500979655000     0.743387190000     0.045824   
H127     H      0.533191455000     0.000979655000     0.243387190000     0.045824   
H127     H      0.533191455000     0.000979655000     0.743387190000     0.045824   
H127     H      0.533191455000     0.500979655000     0.243387190000     0.045824   
H127     H      0.533191455000     0.500979655000     0.743387190000     0.045824   
H128     H      0.059783165000     0.001135795000     0.305383800000     0.046427   
H128     H      0.059783165000     0.001135795000     0.805383800000     0.046427   
H128     H      0.059783165000     0.501135795000     0.305383800000     0.046427   
H128     H      0.059783165000     0.501135795000     0.805383800000     0.046427   
H128     H      0.559783165000     0.001135795000     0.305383800000     0.046427   
H128     H      0.559783165000     0.001135795000     0.805383800000     0.046427   
H128     H      0.559783165000     0.501135795000     0.305383800000     0.046427   
H128     H      0.559783165000     0.501135795000     0.805383800000     0.046427   
H129     H      0.143883170000     0.484956235000     0.290446430000     0.030886   
H129     H      0.143883170000     0.484956235000     0.790446430000     0.030886   
H129     H      0.143883170000     0.984956235000     0.290446430000     0.030886   
H129     H      0.143883170000     0.984956235000     0.790446430000     0.030886   
H129     H      0.643883170000     0.484956235000     0.290446430000     0.030886   
H129     H      0.643883170000     0.484956235000     0.790446430000     0.030886   
H129     H      0.643883170000     0.984956235000     0.290446430000     0.030886   
H129     H      0.643883170000     0.984956235000     0.790446430000     0.030886   
H130     H      0.148057340000     0.006664290000     0.269573300000     0.087792   
H130     H      0.148057340000     0.006664290000     0.769573300000     0.087792   
H130     H      0.148057340000     0.506664290000     0.269573300000     0.087792   
H130     H      0.148057340000     0.506664290000     0.769573300000     0.087792   
H130     H      0.648057340000     0.006664290000     0.269573300000     0.087792   
H130     H      0.648057340000     0.006664290000     0.769573300000     0.087792   
H130     H      0.648057340000     0.506664290000     0.269573300000     0.087792   
H130     H      0.648057340000     0.506664290000     0.769573300000     0.087792   
H131     H      0.149818570000     0.018542480000     0.295523200000     0.058556   
H131     H      0.149818570000     0.018542480000     0.795523200000     0.058556   
H131     H      0.149818570000     0.518542480000     0.295523200000     0.058556   
H131     H      0.149818570000     0.518542480000     0.795523200000     0.058556   
H131     H      0.649818570000     0.018542480000     0.295523200000     0.058556   
H131     H      0.649818570000     0.018542480000     0.795523200000     0.058556   
H131     H      0.649818570000     0.518542480000     0.295523200000     0.058556   
H131     H      0.649818570000     0.518542480000     0.795523200000     0.058556   
H132     H      0.106826990000     0.032961845000     0.277568050000     0.058249   
H132     H      0.106826990000     0.032961845000     0.777568050000     0.058249   
H132     H      0.106826990000     0.532961845000     0.277568050000     0.058249   
H132     H      0.106826990000     0.532961845000     0.777568050000     0.058249   
H132     H      0.606826990000     0.032961845000     0.277568050000     0.058249   
H132     H      0.606826990000     0.032961845000     0.777568050000     0.058249   
H132     H      0.606826990000     0.532961845000     0.277568050000     0.058249   
H132     H      0.606826990000     0.532961845000     0.777568050000     0.058249   
H133     H      0.102871620000     0.012794320000     0.299065800000     0.075822   
H133     H      0.102871620000     0.012794320000     0.799065800000     0.075822   
H133     H      0.102871620000     0.512794320000     0.299065800000     0.075822   
H133     H      0.102871620000     0.512794320000     0.799065800000     0.075822   
H133     H      0.602871620000     0.012794320000     0.299065800000     0.075822   
H133     H      0.602871620000     0.012794320000     0.799065800000     0.075822   
H133     H      0.602871620000     0.512794320000     0.299065800000     0.075822   
H133     H      0.602871620000     0.512794320000     0.799065800000     0.075822   
H134     H      0.097297520000     0.474408985000     0.276805430000     0.249704   
H134     H      0.097297520000     0.474408985000     0.776805430000     0.249704   
H134     H      0.097297520000     0.974408985000     0.276805430000     0.249704   
H134     H      0.097297520000     0.974408985000     0.776805430000     0.249704   
H134     H      0.597297520000     0.474408985000     0.276805430000     0.249704   
H134     H      0.597297520000     0.474408985000     0.776805430000     0.249704   
H134     H      0.597297520000     0.974408985000     0.276805430000     0.249704   
H134     H      0.597297520000     0.974408985000     0.776805430000     0.249704   
H135     H      0.105774805000     0.492375100000     0.254960180000     0.046852   
H135     H      0.105774805000     0.492375100000     0.754960180000     0.046852   
H135     H      0.105774805000     0.992375100000     0.254960180000     0.046852   
H135     H      0.105774805000     0.992375100000     0.754960180000     0.046852   
H135     H      0.605774805000     0.492375100000     0.254960180000     0.046852   
H135     H      0.605774805000     0.492375100000     0.754960180000     0.046852   
H135     H      0.605774805000     0.992375100000     0.254960180000     0.046852   
H135     H      0.605774805000     0.992375100000     0.754960180000     0.046852   
H136     H      0.027808185000     0.085930800000     0.238646050000    -0.160568   
H136     H      0.027808185000     0.085930800000     0.738646050000    -0.160568   
H136     H      0.027808185000     0.585930800000     0.238646050000    -0.160568   
H136     H      0.027808185000     0.585930800000     0.738646050000    -0.160568   
H136     H      0.527808185000     0.085930800000     0.238646050000    -0.160568   
H136     H      0.527808185000     0.085930800000     0.738646050000    -0.160568   
H136     H      0.527808185000     0.585930800000     0.238646050000    -0.160568   
H136     H      0.527808185000     0.585930800000     0.738646050000    -0.160568   
H137     H      0.053910220000     0.097909620000     0.255122500000    -0.179295   
H137     H      0.053910220000     0.097909620000     0.755122500000    -0.179295   
H137     H      0.053910220000     0.597909620000     0.255122500000    -0.179295   
H137     H      0.053910220000     0.597909620000     0.755122500000    -0.179295   
H137     H      0.553910220000     0.097909620000     0.255122500000    -0.179295   
H137     H      0.553910220000     0.097909620000     0.755122500000    -0.179295   
H137     H      0.553910220000     0.597909620000     0.255122500000    -0.179295   
H137     H      0.553910220000     0.597909620000     0.755122500000    -0.179295   
H138     H      0.060160130000     0.088383870000     0.229152575000    -0.005568   
H138     H      0.060160130000     0.088383870000     0.729152575000    -0.005568   
H138     H      0.060160130000     0.588383870000     0.229152575000    -0.005568   
H138     H      0.060160130000     0.588383870000     0.729152575000    -0.005568   
H138     H      0.560160130000     0.088383870000     0.229152575000    -0.005568   
H138     H      0.560160130000     0.088383870000     0.729152575000    -0.005568   
H138     H      0.560160130000     0.588383870000     0.229152575000    -0.005568   
H138     H      0.560160130000     0.588383870000     0.729152575000    -0.005568   
H139     H      0.079507985000     0.054131695000     0.252662035000    -0.005951   
H139     H      0.079507985000     0.054131695000     0.752662035000    -0.005951   
H139     H      0.079507985000     0.554131695000     0.252662035000    -0.005951   
H139     H      0.079507985000     0.554131695000     0.752662035000    -0.005951   
H139     H      0.579507985000     0.054131695000     0.252662035000    -0.005951   
H139     H      0.579507985000     0.054131695000     0.752662035000    -0.005951   
H139     H      0.579507985000     0.554131695000     0.252662035000    -0.005951   
H139     H      0.579507985000     0.554131695000     0.752662035000    -0.005951   
H140     H      0.053166935000     0.042339000000     0.236657950000     0.326132   
H140     H      0.053166935000     0.042339000000     0.736657950000     0.326132   
H140     H      0.053166935000     0.542339000000     0.236657950000     0.326132   
H140     H      0.053166935000     0.542339000000     0.736657950000     0.326132   
H140     H      0.553166935000     0.042339000000     0.236657950000     0.326132   
H140     H      0.553166935000     0.042339000000     0.736657950000     0.326132   
H140     H      0.553166935000     0.542339000000     0.236657950000     0.326132   
H140     H      0.553166935000     0.542339000000     0.736657950000     0.326132   
H141     H      0.021927875000     0.049936710000     0.264681430000     0.318316   
H141     H      0.021927875000     0.049936710000     0.764681430000     0.318316   
H141     H      0.021927875000     0.549936710000     0.264681430000     0.318316   
H141     H      0.021927875000     0.549936710000     0.764681430000     0.318316   
H141     H      0.521927875000     0.049936710000     0.264681430000     0.318316   
H141     H      0.521927875000     0.049936710000     0.764681430000     0.318316   
H141     H      0.521927875000     0.549936710000     0.264681430000     0.318316   
H141     H      0.521927875000     0.549936710000     0.764681430000     0.318316   
H142     H      0.047438835000     0.065080645000     0.279822450000     0.075118   
H142     H      0.047438835000     0.065080645000     0.779822450000     0.075118   
H142     H      0.047438835000     0.565080645000     0.279822450000     0.075118   
H142     H      0.047438835000     0.565080645000     0.779822450000     0.075118   
H142     H      0.547438835000     0.065080645000     0.279822450000     0.075118   
H142     H      0.547438835000     0.065080645000     0.779822450000     0.075118   
H142     H      0.547438835000     0.565080645000     0.279822450000     0.075118   
H142     H      0.547438835000     0.565080645000     0.779822450000     0.075118   
H143     H      0.304572075000     0.221665300000     0.441535000000    -0.184313   
H143     H      0.304572075000     0.221665300000     0.941535000000    -0.184313   
H143     H      0.304572075000     0.721665300000     0.441535000000    -0.184313   
H143     H      0.304572075000     0.721665300000     0.941535000000    -0.184313   
H143     H      0.804572075000     0.221665300000     0.441535000000    -0.184313   
H143     H      0.804572075000     0.221665300000     0.941535000000    -0.184313   
H143     H      0.804572075000     0.721665300000     0.441535000000    -0.184313   
H143     H      0.804572075000     0.721665300000     0.941535000000    -0.184313   
H144     H      0.265617580000     0.232041270000     0.475659450000    -0.022116   
H144     H      0.265617580000     0.232041270000     0.975659450000    -0.022116   
H144     H      0.265617580000     0.732041270000     0.475659450000    -0.022116   
H144     H      0.265617580000     0.732041270000     0.975659450000    -0.022116   
H144     H      0.765617580000     0.232041270000     0.475659450000    -0.022116   
H144     H      0.765617580000     0.232041270000     0.975659450000    -0.022116   
H144     H      0.765617580000     0.732041270000     0.475659450000    -0.022116   
H144     H      0.765617580000     0.732041270000     0.975659450000    -0.022116   
H145     H      0.270210200000     0.256607900000     0.425832720000    -0.144302   
H145     H      0.270210200000     0.256607900000     0.925832720000    -0.144302   
H145     H      0.270210200000     0.756607900000     0.425832720000    -0.144302   
H145     H      0.270210200000     0.756607900000     0.925832720000    -0.144302   
H145     H      0.770210200000     0.256607900000     0.425832720000    -0.144302   
H145     H      0.770210200000     0.256607900000     0.925832720000    -0.144302   
H145     H      0.770210200000     0.756607900000     0.425832720000    -0.144302   
H145     H      0.770210200000     0.756607900000     0.925832720000    -0.144302   
C146     C      0.133657725000     0.349449785000     0.262111450000     0.239823   
C146     C      0.133657725000     0.349449785000     0.762111450000     0.239823   
C146     C      0.133657725000     0.849449785000     0.262111450000     0.239823   
C146     C      0.133657725000     0.849449785000     0.762111450000     0.239823   
C146     C      0.633657725000     0.349449785000     0.262111450000     0.239823   
C146     C      0.633657725000     0.349449785000     0.762111450000     0.239823   
C146     C      0.633657725000     0.849449785000     0.262111450000     0.239823   
C146     C      0.633657725000     0.849449785000     0.762111450000     0.239823   
C147     C      0.086061710000     0.393981935000     0.285426050000     0.321195   
C147     C      0.086061710000     0.393981935000     0.785426050000     0.321195   
C147     C      0.086061710000     0.893981935000     0.285426050000     0.321195   
C147     C      0.086061710000     0.893981935000     0.785426050000     0.321195   
C147     C      0.586061710000     0.393981935000     0.285426050000     0.321195   
C147     C      0.586061710000     0.393981935000     0.785426050000     0.321195   
C147     C      0.586061710000     0.893981935000     0.285426050000     0.321195   
C147     C      0.586061710000     0.893981935000     0.785426050000     0.321195   
C148     C      0.124022005000     0.368040400000     0.274398100000    -0.110918   
C148     C      0.124022005000     0.368040400000     0.774398100000    -0.110918   
C148     C      0.124022005000     0.868040400000     0.274398100000    -0.110918   
C148     C      0.124022005000     0.868040400000     0.774398100000    -0.110918   
C148     C      0.624022005000     0.368040400000     0.274398100000    -0.110918   
C148     C      0.624022005000     0.368040400000     0.774398100000    -0.110918   
C148     C      0.624022005000     0.868040400000     0.274398100000    -0.110918   
C148     C      0.624022005000     0.868040400000     0.774398100000    -0.110918   
C149     C      0.095694525000     0.375393120000     0.273136080000    -0.055708   
C149     C      0.095694525000     0.375393120000     0.773136080000    -0.055708   
C149     C      0.095694525000     0.875393120000     0.273136080000    -0.055708   
C149     C      0.095694525000     0.875393120000     0.773136080000    -0.055708   
C149     C      0.595694525000     0.375393120000     0.273136080000    -0.055708   
C149     C      0.595694525000     0.375393120000     0.773136080000    -0.055708   
C149     C      0.595694525000     0.875393120000     0.273136080000    -0.055708   
C149     C      0.595694525000     0.875393120000     0.773136080000    -0.055708   
C150     C      0.061250930000     0.408793720000     0.280693530000    -0.094326   
C150     C      0.061250930000     0.408793720000     0.780693530000    -0.094326   
C150     C      0.061250930000     0.908793720000     0.280693530000    -0.094326   
C150     C      0.061250930000     0.908793720000     0.780693530000    -0.094326   
C150     C      0.561250930000     0.408793720000     0.280693530000    -0.094326   
C150     C      0.561250930000     0.408793720000     0.780693530000    -0.094326   
C150     C      0.561250930000     0.908793720000     0.280693530000    -0.094326   
C150     C      0.561250930000     0.908793720000     0.780693530000    -0.094326   
C151     C      0.158468380000     0.334638625000     0.266845800000    -0.081568   
C151     C      0.158468380000     0.334638625000     0.766845800000    -0.081568   
C151     C      0.158468380000     0.834638625000     0.266845800000    -0.081568   
C151     C      0.158468380000     0.834638625000     0.766845800000    -0.081568   
C151     C      0.658468380000     0.334638625000     0.266845800000    -0.081568   
C151     C      0.658468380000     0.334638625000     0.766845800000    -0.081568   
C151     C      0.658468380000     0.834638625000     0.266845800000    -0.081568   
C151     C      0.658468380000     0.834638625000     0.766845800000    -0.081568   
C152     C      0.143050925000     0.389703100000     0.165565670000    -0.585511   
C152     C      0.143050925000     0.389703100000     0.665565670000    -0.585511   
C152     C      0.143050925000     0.889703100000     0.165565670000    -0.585511   
C152     C      0.143050925000     0.889703100000     0.665565670000    -0.585511   
C152     C      0.643050925000     0.389703100000     0.165565670000    -0.585511   
C152     C      0.643050925000     0.389703100000     0.665565670000    -0.585511   
C152     C      0.643050925000     0.889703100000     0.165565670000    -0.585511   
C152     C      0.643050925000     0.889703100000     0.665565670000    -0.585511   
C153     C      0.142051100000     0.368291600000     0.177059860000     0.482301   
C153     C      0.142051100000     0.368291600000     0.677059860000     0.482301   
C153     C      0.142051100000     0.868291600000     0.177059860000     0.482301   
C153     C      0.142051100000     0.868291600000     0.677059860000     0.482301   
C153     C      0.642051100000     0.368291600000     0.177059860000     0.482301   
C153     C      0.642051100000     0.368291600000     0.677059860000     0.482301   
C153     C      0.642051100000     0.868291600000     0.177059860000     0.482301   
C153     C      0.642051100000     0.868291600000     0.677059860000     0.482301   
C154     C      0.159756885000     0.388030170000     0.147676260000    -0.110256   
C154     C      0.159756885000     0.388030170000     0.647676260000    -0.110256   
C154     C      0.159756885000     0.888030170000     0.147676260000    -0.110256   
C154     C      0.159756885000     0.888030170000     0.647676260000    -0.110256   
C154     C      0.659756885000     0.388030170000     0.147676260000    -0.110256   
C154     C      0.659756885000     0.388030170000     0.647676260000    -0.110256   
C154     C      0.659756885000     0.888030170000     0.147676260000    -0.110256   
C154     C      0.659756885000     0.888030170000     0.647676260000    -0.110256   
C155     C      0.162999540000     0.366215080000     0.136254015000     2.24297    
C155     C      0.162999540000     0.366215080000     0.636254015000     2.24297    
C155     C      0.162999540000     0.866215080000     0.136254015000     2.24297    
C155     C      0.162999540000     0.866215080000     0.636254015000     2.24297    
C155     C      0.662999540000     0.366215080000     0.136254015000     2.24297    
C155     C      0.662999540000     0.366215080000     0.636254015000     2.24297    
C155     C      0.662999540000     0.866215080000     0.136254015000     2.24297    
C155     C      0.662999540000     0.866215080000     0.636254015000     2.24297    
C156     C      0.178420530000     0.364976315000     0.118076150000     0.296607   
C156     C      0.178420530000     0.364976315000     0.618076150000     0.296607   
C156     C      0.178420530000     0.864976315000     0.118076150000     0.296607   
C156     C      0.178420530000     0.864976315000     0.618076150000     0.296607   
C156     C      0.678420530000     0.364976315000     0.118076150000     0.296607   
C156     C      0.678420530000     0.364976315000     0.618076150000     0.296607   
C156     C      0.678420530000     0.864976315000     0.118076150000     0.296607   
C156     C      0.678420530000     0.864976315000     0.618076150000     0.296607   
C157     C      0.127170310000     0.367284120000     0.195472675000     0.222994   
C157     C      0.127170310000     0.367284120000     0.695472675000     0.222994   
C157     C      0.127170310000     0.867284120000     0.195472675000     0.222994   
C157     C      0.127170310000     0.867284120000     0.695472675000     0.222994   
C157     C      0.627170310000     0.367284120000     0.195472675000     0.222994   
C157     C      0.627170310000     0.367284120000     0.695472675000     0.222994   
C157     C      0.627170310000     0.867284120000     0.195472675000     0.222994   
C157     C      0.627170310000     0.867284120000     0.695472675000     0.222994   
C158     C      0.129893510000     0.416330365000     0.171037510000     0.227204   
C158     C      0.129893510000     0.416330365000     0.671037510000     0.227204   
C158     C      0.129893510000     0.916330365000     0.171037510000     0.227204   
C158     C      0.129893510000     0.916330365000     0.671037510000     0.227204   
C158     C      0.629893510000     0.416330365000     0.171037510000     0.227204   
C158     C      0.629893510000     0.416330365000     0.671037510000     0.227204   
C158     C      0.629893510000     0.916330365000     0.171037510000     0.227204   
C158     C      0.629893510000     0.916330365000     0.671037510000     0.227204   
C159     C      0.144937590000     0.428996400000     0.188945785000     0.133056   
C159     C      0.144937590000     0.428996400000     0.688945785000     0.133056   
C159     C      0.144937590000     0.928996400000     0.188945785000     0.133056   
C159     C      0.144937590000     0.928996400000     0.688945785000     0.133056   
C159     C      0.644937590000     0.428996400000     0.188945785000     0.133056   
C159     C      0.644937590000     0.428996400000     0.688945785000     0.133056   
C159     C      0.644937590000     0.928996400000     0.188945785000     0.133056   
C159     C      0.644937590000     0.928996400000     0.688945785000     0.133056   
C160     C      0.131576570000     0.455674050000     0.194557800000     0.108202   
C160     C      0.131576570000     0.455674050000     0.694557800000     0.108202   
C160     C      0.131576570000     0.955674050000     0.194557800000     0.108202   
C160     C      0.131576570000     0.955674050000     0.694557800000     0.108202   
C160     C      0.631576570000     0.455674050000     0.194557800000     0.108202   
C160     C      0.631576570000     0.455674050000     0.694557800000     0.108202   
C160     C      0.631576570000     0.955674050000     0.194557800000     0.108202   
C160     C      0.631576570000     0.955674050000     0.694557800000     0.108202   
C161     C      0.398960650000     0.177675800000     0.431755275000    -0.106118   
C161     C      0.398960650000     0.177675800000     0.931755275000    -0.106118   
C161     C      0.398960650000     0.677675800000     0.431755275000    -0.106118   
C161     C      0.398960650000     0.677675800000     0.931755275000    -0.106118   
C161     C      0.898960650000     0.177675800000     0.431755275000    -0.106118   
C161     C      0.898960650000     0.177675800000     0.931755275000    -0.106118   
C161     C      0.898960650000     0.677675800000     0.431755275000    -0.106118   
C161     C      0.898960650000     0.677675800000     0.931755275000    -0.106118   
C162     C      0.370447785000     0.188457640000     0.469426630000    -0.050753   
C162     C      0.370447785000     0.188457640000     0.969426630000    -0.050753   
C162     C      0.370447785000     0.688457640000     0.469426630000    -0.050753   
C162     C      0.370447785000     0.688457640000     0.969426630000    -0.050753   
C162     C      0.870447785000     0.188457640000     0.469426630000    -0.050753   
C162     C      0.870447785000     0.188457640000     0.969426630000    -0.050753   
C162     C      0.870447785000     0.688457640000     0.469426630000    -0.050753   
C162     C      0.870447785000     0.688457640000     0.969426630000    -0.050753   
C163     C      0.358863050000     0.191349640000     0.450544200000     0.049316   
C163     C      0.358863050000     0.191349640000     0.950544200000     0.049316   
C163     C      0.358863050000     0.691349640000     0.450544200000     0.049316   
C163     C      0.358863050000     0.691349640000     0.950544200000     0.049316   
C163     C      0.858863050000     0.191349640000     0.450544200000     0.049316   
C163     C      0.858863050000     0.191349640000     0.950544200000     0.049316   
C163     C      0.858863050000     0.691349640000     0.450544200000     0.049316   
C163     C      0.858863050000     0.691349640000     0.950544200000     0.049316   
C164     C      0.372633500000     0.181288885000     0.432356300000    -0.068694   
C164     C      0.372633500000     0.181288885000     0.932356300000    -0.068694   
C164     C      0.372633500000     0.681288885000     0.432356300000    -0.068694   
C164     C      0.372633500000     0.681288885000     0.932356300000    -0.068694   
C164     C      0.872633500000     0.181288885000     0.432356300000    -0.068694   
C164     C      0.872633500000     0.181288885000     0.932356300000    -0.068694   
C164     C      0.872633500000     0.681288885000     0.432356300000    -0.068694   
C164     C      0.872633500000     0.681288885000     0.932356300000    -0.068694   
C165     C      0.355075250000     0.193575325000     0.487453350000     0.078001   
C165     C      0.355075250000     0.193575325000     0.987453350000     0.078001   
C165     C      0.355075250000     0.693575325000     0.487453350000     0.078001   
C165     C      0.355075250000     0.693575325000     0.987453350000     0.078001   
C165     C      0.855075250000     0.193575325000     0.487453350000     0.078001   
C165     C      0.855075250000     0.193575325000     0.987453350000     0.078001   
C165     C      0.855075250000     0.693575325000     0.487453350000     0.078001   
C165     C      0.855075250000     0.693575325000     0.987453350000     0.078001   
C166     C      0.411045550000     0.161274390000     0.415799900000     0.151934   
C166     C      0.411045550000     0.161274390000     0.915799900000     0.151934   
C166     C      0.411045550000     0.661274390000     0.415799900000     0.151934   
C166     C      0.411045550000     0.661274390000     0.915799900000     0.151934   
C166     C      0.911045550000     0.161274390000     0.415799900000     0.151934   
C166     C      0.911045550000     0.161274390000     0.915799900000     0.151934   
C166     C      0.911045550000     0.661274390000     0.415799900000     0.151934   
C166     C      0.911045550000     0.661274390000     0.915799900000     0.151934   
C167     C      0.262938900000     0.321619930000     0.079754820000    -0.068874   
C167     C      0.262938900000     0.321619930000     0.579754820000    -0.068874   
C167     C      0.262938900000     0.821619930000     0.079754820000    -0.068874   
C167     C      0.262938900000     0.821619930000     0.579754820000    -0.068874   
C167     C      0.762938900000     0.321619930000     0.079754820000    -0.068874   
C167     C      0.762938900000     0.321619930000     0.579754820000    -0.068874   
C167     C      0.762938900000     0.821619930000     0.079754820000    -0.068874   
C167     C      0.762938900000     0.821619930000     0.579754820000    -0.068874   
C168     C      0.390710600000     0.022356630000     0.121614410000    -0.101183   
C168     C      0.390710600000     0.022356630000     0.621614410000    -0.101183   
C168     C      0.390710600000     0.522356630000     0.121614410000    -0.101183   
C168     C      0.390710600000     0.522356630000     0.621614410000    -0.101183   
C168     C      0.890710600000     0.022356630000     0.121614410000    -0.101183   
C168     C      0.890710600000     0.022356630000     0.621614410000    -0.101183   
C168     C      0.890710600000     0.522356630000     0.121614410000    -0.101183   
C168     C      0.890710600000     0.522356630000     0.621614410000    -0.101183   
C169     C      0.340688950000     0.471606200000     0.125554980000    -0.030941   
C169     C      0.340688950000     0.471606200000     0.625554980000    -0.030941   
C169     C      0.340688950000     0.971606200000     0.125554980000    -0.030941   
C169     C      0.340688950000     0.971606200000     0.625554980000    -0.030941   
C169     C      0.840688950000     0.471606200000     0.125554980000    -0.030941   
C169     C      0.840688950000     0.471606200000     0.625554980000    -0.030941   
C169     C      0.840688950000     0.971606200000     0.125554980000    -0.030941   
C169     C      0.840688950000     0.971606200000     0.625554980000    -0.030941   
C170     C      0.317694250000     0.368532925000     0.082968175000    -0.002898   
C170     C      0.317694250000     0.368532925000     0.582968175000    -0.002898   
C170     C      0.317694250000     0.868532925000     0.082968175000    -0.002898   
C170     C      0.317694250000     0.868532925000     0.582968175000    -0.002898   
C170     C      0.817694250000     0.368532925000     0.082968175000    -0.002898   
C170     C      0.817694250000     0.368532925000     0.582968175000    -0.002898   
C170     C      0.817694250000     0.868532925000     0.082968175000    -0.002898   
C170     C      0.817694250000     0.868532925000     0.582968175000    -0.002898   
C171     C      0.352345850000     0.495471150000     0.126768260000     0.00464    
C171     C      0.352345850000     0.495471150000     0.626768260000     0.00464    
C171     C      0.352345850000     0.995471150000     0.126768260000     0.00464    
C171     C      0.352345850000     0.995471150000     0.626768260000     0.00464    
C171     C      0.852345850000     0.495471150000     0.126768260000     0.00464    
C171     C      0.852345850000     0.495471150000     0.626768260000     0.00464    
C171     C      0.852345850000     0.995471150000     0.126768260000     0.00464    
C171     C      0.852345850000     0.995471150000     0.626768260000     0.00464    
C172     C      0.303082465000     0.347178050000     0.077479450000    -0.007043   
C172     C      0.303082465000     0.347178050000     0.577479450000    -0.007043   
C172     C      0.303082465000     0.847178050000     0.077479450000    -0.007043   
C172     C      0.303082465000     0.847178050000     0.577479450000    -0.007043   
C172     C      0.803082465000     0.347178050000     0.077479450000    -0.007043   
C172     C      0.803082465000     0.347178050000     0.577479450000    -0.007043   
C172     C      0.803082465000     0.847178050000     0.077479450000    -0.007043   
C172     C      0.803082465000     0.847178050000     0.577479450000    -0.007043   
C173     C      0.376818420000     0.497875250000     0.118310950000     0.085439   
C173     C      0.376818420000     0.497875250000     0.618310950000     0.085439   
C173     C      0.376818420000     0.997875250000     0.118310950000     0.085439   
C173     C      0.376818420000     0.997875250000     0.618310950000     0.085439   
C173     C      0.876818420000     0.497875250000     0.118310950000     0.085439   
C173     C      0.876818420000     0.497875250000     0.618310950000     0.085439   
C173     C      0.876818420000     0.997875250000     0.118310950000     0.085439   
C173     C      0.876818420000     0.997875250000     0.618310950000     0.085439   
C174     C      0.277874400000     0.345097870000     0.085002070000    -0.187935   
C174     C      0.277874400000     0.345097870000     0.585002070000    -0.187935   
C174     C      0.277874400000     0.845097870000     0.085002070000    -0.187935   
C174     C      0.277874400000     0.845097870000     0.585002070000    -0.187935   
C174     C      0.777874400000     0.345097870000     0.085002070000    -0.187935   
C174     C      0.777874400000     0.345097870000     0.585002070000    -0.187935   
C174     C      0.777874400000     0.845097870000     0.085002070000    -0.187935   
C174     C      0.777874400000     0.845097870000     0.585002070000    -0.187935   
C175     C      0.389091000000     0.475337265000     0.108737985000     0.089313   
C175     C      0.389091000000     0.475337265000     0.608737985000     0.089313   
C175     C      0.389091000000     0.975337265000     0.108737985000     0.089313   
C175     C      0.389091000000     0.975337265000     0.608737985000     0.089313   
C175     C      0.889091000000     0.475337265000     0.108737985000     0.089313   
C175     C      0.889091000000     0.475337265000     0.608737985000     0.089313   
C175     C      0.889091000000     0.975337265000     0.108737985000     0.089313   
C175     C      0.889091000000     0.975337265000     0.608737985000     0.089313   
C176     C      0.267597500000     0.365625750000     0.098003765000    -0.192024   
C176     C      0.267597500000     0.365625750000     0.598003765000    -0.192024   
C176     C      0.267597500000     0.865625750000     0.098003765000    -0.192024   
C176     C      0.267597500000     0.865625750000     0.598003765000    -0.192024   
C176     C      0.767597500000     0.365625750000     0.098003765000    -0.192024   
C176     C      0.767597500000     0.365625750000     0.598003765000    -0.192024   
C176     C      0.767597500000     0.865625750000     0.098003765000    -0.192024   
C176     C      0.767597500000     0.865625750000     0.598003765000    -0.192024   
C177     C      0.374213900000     0.454096230000     0.103270695000     0.088567   
C177     C      0.374213900000     0.454096230000     0.603270695000     0.088567   
C177     C      0.374213900000     0.954096230000     0.103270695000     0.088567   
C177     C      0.374213900000     0.954096230000     0.603270695000     0.088567   
C177     C      0.874213900000     0.454096230000     0.103270695000     0.088567   
C177     C      0.874213900000     0.454096230000     0.603270695000     0.088567   
C177     C      0.874213900000     0.954096230000     0.103270695000     0.088567   
C177     C      0.874213900000     0.954096230000     0.603270695000     0.088567   
C178     C      0.281220225000     0.388043650000     0.101388180000    -0.2033     
C178     C      0.281220225000     0.388043650000     0.601388180000    -0.2033     
C178     C      0.281220225000     0.888043650000     0.101388180000    -0.2033     
C178     C      0.281220225000     0.888043650000     0.601388180000    -0.2033     
C178     C      0.781220225000     0.388043650000     0.101388180000    -0.2033     
C178     C      0.781220225000     0.388043650000     0.601388180000    -0.2033     
C178     C      0.781220225000     0.888043650000     0.101388180000    -0.2033     
C178     C      0.781220225000     0.888043650000     0.601388180000    -0.2033     
C179     C      0.349451200000     0.452285020000     0.111324055000     0.05261    
C179     C      0.349451200000     0.452285020000     0.611324055000     0.05261    
C179     C      0.349451200000     0.952285020000     0.111324055000     0.05261    
C179     C      0.349451200000     0.952285020000     0.611324055000     0.05261    
C179     C      0.849451200000     0.452285020000     0.111324055000     0.05261    
C179     C      0.849451200000     0.452285020000     0.611324055000     0.05261    
C179     C      0.849451200000     0.952285020000     0.111324055000     0.05261    
C179     C      0.849451200000     0.952285020000     0.611324055000     0.05261    
C180     C      0.306519000000     0.389541150000     0.094605490000    -0.171726   
C180     C      0.306519000000     0.389541150000     0.594605490000    -0.171726   
C180     C      0.306519000000     0.889541150000     0.094605490000    -0.171726   
C180     C      0.306519000000     0.889541150000     0.594605490000    -0.171726   
C180     C      0.806519000000     0.389541150000     0.094605490000    -0.171726   
C180     C      0.806519000000     0.389541150000     0.594605490000    -0.171726   
C180     C      0.806519000000     0.889541150000     0.094605490000    -0.171726   
C180     C      0.806519000000     0.889541150000     0.594605490000    -0.171726   
C181     C      0.334215800000     0.430070200000     0.105887615000    -1.48604    
C181     C      0.334215800000     0.430070200000     0.605887615000    -1.48604    
C181     C      0.334215800000     0.930070200000     0.105887615000    -1.48604    
C181     C      0.334215800000     0.930070200000     0.605887615000    -1.48604    
C181     C      0.834215800000     0.430070200000     0.105887615000    -1.48604    
C181     C      0.834215800000     0.430070200000     0.605887615000    -1.48604    
C181     C      0.834215800000     0.930070200000     0.105887615000    -1.48604    
C181     C      0.834215800000     0.930070200000     0.605887615000    -1.48604    
C182     C      0.321502050000     0.411765850000     0.100753805000     0.379753   
C182     C      0.321502050000     0.411765850000     0.600753805000     0.379753   
C182     C      0.321502050000     0.911765850000     0.100753805000     0.379753   
C182     C      0.321502050000     0.911765850000     0.600753805000     0.379753   
C182     C      0.821502050000     0.411765850000     0.100753805000     0.379753   
C182     C      0.821502050000     0.411765850000     0.600753805000     0.379753   
C182     C      0.821502050000     0.911765850000     0.100753805000     0.379753   
C182     C      0.821502050000     0.911765850000     0.600753805000     0.379753   
C183     C      0.340427280000     0.457601550000     0.157969150000    -0.510356   
C183     C      0.340427280000     0.457601550000     0.657969150000    -0.510356   
C183     C      0.340427280000     0.957601550000     0.157969150000    -0.510356   
C183     C      0.340427280000     0.957601550000     0.657969150000    -0.510356   
C183     C      0.840427280000     0.457601550000     0.157969150000    -0.510356   
C183     C      0.840427280000     0.457601550000     0.657969150000    -0.510356   
C183     C      0.840427280000     0.957601550000     0.157969150000    -0.510356   
C183     C      0.840427280000     0.957601550000     0.657969150000    -0.510356   
C184     C      0.323659350000     0.450841450000     0.175444200000     1.61228    
C184     C      0.323659350000     0.450841450000     0.675444200000     1.61228    
C184     C      0.323659350000     0.950841450000     0.175444200000     1.61228    
C184     C      0.323659350000     0.950841450000     0.675444200000     1.61228    
C184     C      0.823659350000     0.450841450000     0.175444200000     1.61228    
C184     C      0.823659350000     0.450841450000     0.675444200000     1.61228    
C184     C      0.823659350000     0.950841450000     0.175444200000     1.61228    
C184     C      0.823659350000     0.950841450000     0.675444200000     1.61228    
C185     C      0.360613350000     0.360578715000     0.093335455000     0.782627   
C185     C      0.360613350000     0.360578715000     0.593335455000     0.782627   
C185     C      0.360613350000     0.860578715000     0.093335455000     0.782627   
C185     C      0.360613350000     0.860578715000     0.593335455000     0.782627   
C185     C      0.860613350000     0.360578715000     0.093335455000     0.782627   
C185     C      0.860613350000     0.360578715000     0.593335455000     0.782627   
C185     C      0.860613350000     0.860578715000     0.093335455000     0.782627   
C185     C      0.860613350000     0.860578715000     0.593335455000     0.782627   
C186     C      0.386557250000     0.372228535000     0.091002970000     4.47263    
C186     C      0.386557250000     0.372228535000     0.591002970000     4.47263    
C186     C      0.386557250000     0.872228535000     0.091002970000     4.47263    
C186     C      0.386557250000     0.872228535000     0.591002970000     4.47263    
C186     C      0.886557250000     0.372228535000     0.091002970000     4.47263    
C186     C      0.886557250000     0.372228535000     0.591002970000     4.47263    
C186     C      0.886557250000     0.872228535000     0.091002970000     4.47263    
C186     C      0.886557250000     0.872228535000     0.591002970000     4.47263    
C187     C      0.426013825000     0.456448885000     0.124957920000     0.828929   
C187     C      0.426013825000     0.456448885000     0.624957920000     0.828929   
C187     C      0.426013825000     0.956448885000     0.124957920000     0.828929   
C187     C      0.426013825000     0.956448885000     0.624957920000     0.828929   
C187     C      0.926013825000     0.456448885000     0.124957920000     0.828929   
C187     C      0.926013825000     0.456448885000     0.624957920000     0.828929   
C187     C      0.926013825000     0.956448885000     0.124957920000     0.828929   
C187     C      0.926013825000     0.956448885000     0.624957920000     0.828929   
C188     C      0.453490850000     0.463156350000     0.132336975000     0.28939    
C188     C      0.453490850000     0.463156350000     0.632336975000     0.28939    
C188     C      0.453490850000     0.963156350000     0.132336975000     0.28939    
C188     C      0.453490850000     0.963156350000     0.632336975000     0.28939    
C188     C      0.953490850000     0.463156350000     0.132336975000     0.28939    
C188     C      0.953490850000     0.463156350000     0.632336975000     0.28939    
C188     C      0.953490850000     0.963156350000     0.132336975000     0.28939    
C188     C      0.953490850000     0.963156350000     0.632336975000     0.28939    
C189     C      0.251119800000     0.352954150000     0.127383115000     0.299568   
C189     C      0.251119800000     0.352954150000     0.627383115000     0.299568   
C189     C      0.251119800000     0.852954150000     0.127383115000     0.299568   
C189     C      0.251119800000     0.852954150000     0.627383115000     0.299568   
C189     C      0.751119800000     0.352954150000     0.127383115000     0.299568   
C189     C      0.751119800000     0.352954150000     0.627383115000     0.299568   
C189     C      0.751119800000     0.852954150000     0.127383115000     0.299568   
C189     C      0.751119800000     0.852954150000     0.627383115000     0.299568   
C190     C      0.228076400000     0.358359785000     0.141241750000     0.000371   
C190     C      0.228076400000     0.358359785000     0.641241750000     0.000371   
C190     C      0.228076400000     0.858359785000     0.141241750000     0.000371   
C190     C      0.228076400000     0.858359785000     0.641241750000     0.000371   
C190     C      0.728076400000     0.358359785000     0.141241750000     0.000371   
C190     C      0.728076400000     0.358359785000     0.641241750000     0.000371   
C190     C      0.728076400000     0.858359785000     0.141241750000     0.000371   
C190     C      0.728076400000     0.858359785000     0.641241750000     0.000371   
C191     C      0.277668650000     0.241927815000     0.032338685000     0.00065    
C191     C      0.277668650000     0.241927815000     0.532338685000     0.00065    
C191     C      0.277668650000     0.741927815000     0.032338685000     0.00065    
C191     C      0.277668650000     0.741927815000     0.532338685000     0.00065    
C191     C      0.777668650000     0.241927815000     0.032338685000     0.00065    
C191     C      0.777668650000     0.241927815000     0.532338685000     0.00065    
C191     C      0.777668650000     0.741927815000     0.032338685000     0.00065    
C191     C      0.777668650000     0.741927815000     0.532338685000     0.00065    
C192     C      0.250366150000     0.248007520000     0.072034625000    -0.022876   
C192     C      0.250366150000     0.248007520000     0.572034625000    -0.022876   
C192     C      0.250366150000     0.748007520000     0.072034625000    -0.022876   
C192     C      0.250366150000     0.748007520000     0.572034625000    -0.022876   
C192     C      0.750366150000     0.248007520000     0.072034625000    -0.022876   
C192     C      0.750366150000     0.248007520000     0.572034625000    -0.022876   
C192     C      0.750366150000     0.748007520000     0.072034625000    -0.022876   
C192     C      0.750366150000     0.748007520000     0.572034625000    -0.022876   
C193     C      0.238525850000     0.246530415000     0.053482865000    -0.023364   
C193     C      0.238525850000     0.246530415000     0.553482865000    -0.023364   
C193     C      0.238525850000     0.746530415000     0.053482865000    -0.023364   
C193     C      0.238525850000     0.746530415000     0.553482865000    -0.023364   
C193     C      0.738525850000     0.246530415000     0.053482865000    -0.023364   
C193     C      0.738525850000     0.246530415000     0.553482865000    -0.023364   
C193     C      0.738525850000     0.746530415000     0.053482865000    -0.023364   
C193     C      0.738525850000     0.746530415000     0.553482865000    -0.023364   
C194     C      0.253054770000     0.236135700000     0.036199460000    -0.042767   
C194     C      0.253054770000     0.236135700000     0.536199460000    -0.042767   
C194     C      0.253054770000     0.736135700000     0.036199460000    -0.042767   
C194     C      0.253054770000     0.736135700000     0.536199460000    -0.042767   
C194     C      0.753054770000     0.236135700000     0.036199460000    -0.042767   
C194     C      0.753054770000     0.236135700000     0.536199460000    -0.042767   
C194     C      0.753054770000     0.736135700000     0.036199460000    -0.042767   
C194     C      0.753054770000     0.736135700000     0.536199460000    -0.042767   
C195     C      0.239259420000     0.266217230000     0.087074080000    -0.042952   
C195     C      0.239259420000     0.266217230000     0.587074080000    -0.042952   
C195     C      0.239259420000     0.766217230000     0.087074080000    -0.042952   
C195     C      0.239259420000     0.766217230000     0.587074080000    -0.042952   
C195     C      0.739259420000     0.266217230000     0.087074080000    -0.042952   
C195     C      0.739259420000     0.266217230000     0.587074080000    -0.042952   
C195     C      0.739259420000     0.766217230000     0.087074080000    -0.042952   
C195     C      0.739259420000     0.766217230000     0.587074080000    -0.042952   
C196     C      0.288265375000     0.229934125000     0.014036020000    -0.02297    
C196     C      0.288265375000     0.229934125000     0.514036020000    -0.02297    
C196     C      0.288265375000     0.729934125000     0.014036020000    -0.02297    
C196     C      0.288265375000     0.729934125000     0.514036020000    -0.02297    
C196     C      0.788265375000     0.229934125000     0.014036020000    -0.02297    
C196     C      0.788265375000     0.229934125000     0.514036020000    -0.02297    
C196     C      0.788265375000     0.729934125000     0.014036020000    -0.02297    
C196     C      0.788265375000     0.729934125000     0.514036020000    -0.02297    
C197     C      0.292457600000     0.262047600000     0.043579295000    -0.021939   
C197     C      0.292457600000     0.262047600000     0.543579295000    -0.021939   
C197     C      0.292457600000     0.762047600000     0.043579295000    -0.021939   
C197     C      0.292457600000     0.762047600000     0.543579295000    -0.021939   
C197     C      0.792457600000     0.262047600000     0.043579295000    -0.021939   
C197     C      0.792457600000     0.262047600000     0.543579295000    -0.021939   
C197     C      0.792457600000     0.762047600000     0.043579295000    -0.021939   
C197     C      0.792457600000     0.762047600000     0.543579295000    -0.021939   
C198     C      0.100790590000     0.272683025000     0.297882950000    -0.101845   
C198     C      0.100790590000     0.272683025000     0.797882950000    -0.101845   
C198     C      0.100790590000     0.772683025000     0.297882950000    -0.101845   
C198     C      0.100790590000     0.772683025000     0.797882950000    -0.101845   
C198     C      0.600790590000     0.272683025000     0.297882950000    -0.101845   
C198     C      0.600790590000     0.272683025000     0.797882950000    -0.101845   
C198     C      0.600790590000     0.772683025000     0.297882950000    -0.101845   
C198     C      0.600790590000     0.772683025000     0.797882950000    -0.101845   
C199     C      0.052906820000     0.110034780000     0.425803550000    -0.089005   
C199     C      0.052906820000     0.110034780000     0.925803550000    -0.089005   
C199     C      0.052906820000     0.610034780000     0.425803550000    -0.089005   
C199     C      0.052906820000     0.610034780000     0.925803550000    -0.089005   
C199     C      0.552906820000     0.110034780000     0.425803550000    -0.089005   
C199     C      0.552906820000     0.110034780000     0.925803550000    -0.089005   
C199     C      0.552906820000     0.610034780000     0.425803550000    -0.089005   
C199     C      0.552906820000     0.610034780000     0.925803550000    -0.089005   
C200     C      0.071720995000     0.165746150000     0.383691370000     0.05249    
C200     C      0.071720995000     0.165746150000     0.883691370000     0.05249    
C200     C      0.071720995000     0.665746150000     0.383691370000     0.05249    
C200     C      0.071720995000     0.665746150000     0.883691370000     0.05249    
C200     C      0.571720995000     0.165746150000     0.383691370000     0.05249    
C200     C      0.571720995000     0.165746150000     0.883691370000     0.05249    
C200     C      0.571720995000     0.665746150000     0.383691370000     0.05249    
C200     C      0.571720995000     0.665746150000     0.883691370000     0.05249    
C201     C      0.082401450000     0.218673870000     0.341525200000     0.057324   
C201     C      0.082401450000     0.218673870000     0.841525200000     0.057324   
C201     C      0.082401450000     0.718673870000     0.341525200000     0.057324   
C201     C      0.082401450000     0.718673870000     0.841525200000     0.057324   
C201     C      0.582401450000     0.218673870000     0.341525200000     0.057324   
C201     C      0.582401450000     0.218673870000     0.841525200000     0.057324   
C201     C      0.582401450000     0.718673870000     0.341525200000     0.057324   
C201     C      0.582401450000     0.718673870000     0.841525200000     0.057324   
C202     C      0.075671105000     0.184503450000     0.368984950000    -0.004313   
C202     C      0.075671105000     0.184503450000     0.868984950000    -0.004313   
C202     C      0.075671105000     0.684503450000     0.368984950000    -0.004313   
C202     C      0.075671105000     0.684503450000     0.868984950000    -0.004313   
C202     C      0.575671105000     0.184503450000     0.368984950000    -0.004313   
C202     C      0.575671105000     0.184503450000     0.868984950000    -0.004313   
C202     C      0.575671105000     0.684503450000     0.368984950000    -0.004313   
C202     C      0.575671105000     0.684503450000     0.868984950000    -0.004313   
C203     C      0.078557650000     0.200183185000     0.356463500000    -0.002882   
C203     C      0.078557650000     0.200183185000     0.856463500000    -0.002882   
C203     C      0.078557650000     0.700183185000     0.356463500000    -0.002882   
C203     C      0.078557650000     0.700183185000     0.856463500000    -0.002882   
C203     C      0.578557650000     0.200183185000     0.356463500000    -0.002882   
C203     C      0.578557650000     0.200183185000     0.856463500000    -0.002882   
C203     C      0.578557650000     0.700183185000     0.356463500000    -0.002882   
C203     C      0.578557650000     0.700183185000     0.856463500000    -0.002882   
C204     C      0.048686175000     0.169822185000     0.394219725000     0.242816   
C204     C      0.048686175000     0.169822185000     0.894219725000     0.242816   
C204     C      0.048686175000     0.669822185000     0.394219725000     0.242816   
C204     C      0.048686175000     0.669822185000     0.894219725000     0.242816   
C204     C      0.548686175000     0.169822185000     0.394219725000     0.242816   
C204     C      0.548686175000     0.169822185000     0.894219725000     0.242816   
C204     C      0.548686175000     0.669822185000     0.394219725000     0.242816   
C204     C      0.548686175000     0.669822185000     0.894219725000     0.242816   
C205     C      0.102436730000     0.234877675000     0.345947625000     0.212176   
C205     C      0.102436730000     0.234877675000     0.845947625000     0.212176   
C205     C      0.102436730000     0.734877675000     0.345947625000     0.212176   
C205     C      0.102436730000     0.734877675000     0.845947625000     0.212176   
C205     C      0.602436730000     0.234877675000     0.345947625000     0.212176   
C205     C      0.602436730000     0.234877675000     0.845947625000     0.212176   
C205     C      0.602436730000     0.734877675000     0.345947625000     0.212176   
C205     C      0.602436730000     0.734877675000     0.845947625000     0.212176   
C206     C      0.041949265000     0.151518675000     0.407774330000    -0.177849   
C206     C      0.041949265000     0.151518675000     0.907774330000    -0.177849   
C206     C      0.041949265000     0.651518675000     0.407774330000    -0.177849   
C206     C      0.041949265000     0.651518675000     0.907774330000    -0.177849   
C206     C      0.541949265000     0.151518675000     0.407774330000    -0.177849   
C206     C      0.541949265000     0.151518675000     0.907774330000    -0.177849   
C206     C      0.541949265000     0.651518675000     0.407774330000    -0.177849   
C206     C      0.541949265000     0.651518675000     0.907774330000    -0.177849   
C207     C      0.109062745000     0.252333970000     0.331669900000    -0.184652   
C207     C      0.109062745000     0.252333970000     0.831669900000    -0.184652   
C207     C      0.109062745000     0.752333970000     0.331669900000    -0.184652   
C207     C      0.109062745000     0.752333970000     0.831669900000    -0.184652   
C207     C      0.609062745000     0.252333970000     0.331669900000    -0.184652   
C207     C      0.609062745000     0.252333970000     0.831669900000    -0.184652   
C207     C      0.609062745000     0.752333970000     0.331669900000    -0.184652   
C207     C      0.609062745000     0.752333970000     0.831669900000    -0.184652   
C208     C      0.059288475000     0.128903250000     0.411079200000    -0.156478   
C208     C      0.059288475000     0.128903250000     0.911079200000    -0.156478   
C208     C      0.059288475000     0.628903250000     0.411079200000    -0.156478   
C208     C      0.059288475000     0.628903250000     0.911079200000    -0.156478   
C208     C      0.559288475000     0.128903250000     0.411079200000    -0.156478   
C208     C      0.559288475000     0.128903250000     0.911079200000    -0.156478   
C208     C      0.559288475000     0.628903250000     0.411079200000    -0.156478   
C208     C      0.559288475000     0.628903250000     0.911079200000    -0.156478   
C209     C      0.094588175000     0.253842000000     0.312703150000    -0.156144   
C209     C      0.094588175000     0.253842000000     0.812703150000    -0.156144   
C209     C      0.094588175000     0.753842000000     0.312703150000    -0.156144   
C209     C      0.094588175000     0.753842000000     0.812703150000    -0.156144   
C209     C      0.594588175000     0.253842000000     0.312703150000    -0.156144   
C209     C      0.594588175000     0.253842000000     0.812703150000    -0.156144   
C209     C      0.594588175000     0.753842000000     0.312703150000    -0.156144   
C209     C      0.594588175000     0.753842000000     0.812703150000    -0.156144   
C210     C      0.083500220000     0.124997785000     0.401065825000     0.05872    
C210     C      0.083500220000     0.124997785000     0.901065825000     0.05872    
C210     C      0.083500220000     0.624997785000     0.401065825000     0.05872    
C210     C      0.083500220000     0.624997785000     0.901065825000     0.05872    
C210     C      0.583500220000     0.124997785000     0.401065825000     0.05872    
C210     C      0.583500220000     0.124997785000     0.901065825000     0.05872    
C210     C      0.583500220000     0.624997785000     0.401065825000     0.05872    
C210     C      0.583500220000     0.624997785000     0.901065825000     0.05872    
C211     C      0.073254920000     0.238178285000     0.308305920000    -0.053931   
C211     C      0.073254920000     0.238178285000     0.808305920000    -0.053931   
C211     C      0.073254920000     0.738178285000     0.308305920000    -0.053931   
C211     C      0.073254920000     0.738178285000     0.808305920000    -0.053931   
C211     C      0.573254920000     0.238178285000     0.308305920000    -0.053931   
C211     C      0.573254920000     0.238178285000     0.808305920000    -0.053931   
C211     C      0.573254920000     0.738178285000     0.308305920000    -0.053931   
C211     C      0.573254920000     0.738178285000     0.808305920000    -0.053931   
C212     C      0.089630060000     0.143605635000     0.386886750000    -0.018632   
C212     C      0.089630060000     0.143605635000     0.886886750000    -0.018632   
C212     C      0.089630060000     0.643605635000     0.386886750000    -0.018632   
C212     C      0.089630060000     0.643605635000     0.886886750000    -0.018632   
C212     C      0.589630060000     0.143605635000     0.386886750000    -0.018632   
C212     C      0.589630060000     0.143605635000     0.886886750000    -0.018632   
C212     C      0.589630060000     0.643605635000     0.386886750000    -0.018632   
C212     C      0.589630060000     0.643605635000     0.886886750000    -0.018632   
C213     C      0.067340770000     0.219967515000     0.322876700000    -0.131192   
C213     C      0.067340770000     0.219967515000     0.822876700000    -0.131192   
C213     C      0.067340770000     0.719967515000     0.322876700000    -0.131192   
C213     C      0.067340770000     0.719967515000     0.822876700000    -0.131192   
C213     C      0.567340770000     0.219967515000     0.322876700000    -0.131192   
C213     C      0.567340770000     0.219967515000     0.822876700000    -0.131192   
C213     C      0.567340770000     0.719967515000     0.322876700000    -0.131192   
C213     C      0.567340770000     0.719967515000     0.822876700000    -0.131192   
C214     C      0.016131360000     0.156254290000     0.417487325000     0.035418   
C214     C      0.016131360000     0.156254290000     0.917487325000     0.035418   
C214     C      0.016131360000     0.656254290000     0.417487325000     0.035418   
C214     C      0.016131360000     0.656254290000     0.917487325000     0.035418   
C214     C      0.516131360000     0.156254290000     0.417487325000     0.035418   
C214     C      0.516131360000     0.156254290000     0.917487325000     0.035418   
C214     C      0.516131360000     0.656254290000     0.417487325000     0.035418   
C214     C      0.516131360000     0.656254290000     0.917487325000     0.035418   
C215     C      0.131911850000     0.267822800000     0.336861750000     0.281597   
C215     C      0.131911850000     0.267822800000     0.836861750000     0.281597   
C215     C      0.131911850000     0.767822800000     0.336861750000     0.281597   
C215     C      0.131911850000     0.767822800000     0.836861750000     0.281597   
C215     C      0.631911850000     0.267822800000     0.336861750000     0.281597   
C215     C      0.631911850000     0.267822800000     0.836861750000     0.281597   
C215     C      0.631911850000     0.767822800000     0.336861750000     0.281597   
C215     C      0.631911850000     0.767822800000     0.836861750000     0.281597   
C216     C      0.102465210000     0.101232745000     0.405958830000    -0.08083    
C216     C      0.102465210000     0.101232745000     0.905958830000    -0.08083    
C216     C      0.102465210000     0.601232745000     0.405958830000    -0.08083    
C216     C      0.102465210000     0.601232745000     0.905958830000    -0.08083    
C216     C      0.602465210000     0.101232745000     0.405958830000    -0.08083    
C216     C      0.602465210000     0.101232745000     0.905958830000    -0.08083    
C216     C      0.602465210000     0.601232745000     0.405958830000    -0.08083    
C216     C      0.602465210000     0.601232745000     0.905958830000    -0.08083    
C217     C      0.056987850000     0.241508365000     0.288277700000    -0.023189   
C217     C      0.056987850000     0.241508365000     0.788277700000    -0.023189   
C217     C      0.056987850000     0.741508365000     0.288277700000    -0.023189   
C217     C      0.056987850000     0.741508365000     0.788277700000    -0.023189   
C217     C      0.556987850000     0.241508365000     0.288277700000    -0.023189   
C217     C      0.556987850000     0.241508365000     0.788277700000    -0.023189   
C217     C      0.556987850000     0.741508365000     0.288277700000    -0.023189   
C217     C      0.556987850000     0.741508365000     0.788277700000    -0.023189   
C218     C      0.114772715000     0.139673190000     0.375254035000    -0.042768   
C218     C      0.114772715000     0.139673190000     0.875254035000    -0.042768   
C218     C      0.114772715000     0.639673190000     0.375254035000    -0.042768   
C218     C      0.114772715000     0.639673190000     0.875254035000    -0.042768   
C218     C      0.614772715000     0.139673190000     0.375254035000    -0.042768   
C218     C      0.614772715000     0.139673190000     0.875254035000    -0.042768   
C218     C      0.614772715000     0.639673190000     0.375254035000    -0.042768   
C218     C      0.614772715000     0.639673190000     0.875254035000    -0.042768   
C219     C      0.045461605000     0.202076150000     0.318430215000     0.041324   
C219     C      0.045461605000     0.202076150000     0.818430215000     0.041324   
C219     C      0.045461605000     0.702076150000     0.318430215000     0.041324   
C219     C      0.045461605000     0.702076150000     0.818430215000     0.041324   
C219     C      0.545461605000     0.202076150000     0.318430215000     0.041324   
C219     C      0.545461605000     0.202076150000     0.818430215000     0.041324   
C219     C      0.545461605000     0.702076150000     0.318430215000     0.041324   
C219     C      0.545461605000     0.702076150000     0.818430215000     0.041324   
C220     C      0.012201950000     0.482898800000     0.120323750000     0.013383   
C220     C      0.012201950000     0.482898800000     0.620323750000     0.013383   
C220     C      0.012201950000     0.982898800000     0.120323750000     0.013383   
C220     C      0.012201950000     0.982898800000     0.620323750000     0.013383   
C220     C      0.512201950000     0.482898800000     0.120323750000     0.013383   
C220     C      0.512201950000     0.482898800000     0.620323750000     0.013383   
C220     C      0.512201950000     0.982898800000     0.120323750000     0.013383   
C220     C      0.512201950000     0.982898800000     0.620323750000     0.013383   
C221     C      0.005328220000     0.485724300000     0.141481700000    -0.025165   
C221     C      0.005328220000     0.485724300000     0.641481700000    -0.025165   
C221     C      0.005328220000     0.985724300000     0.141481700000    -0.025165   
C221     C      0.005328220000     0.985724300000     0.641481700000    -0.025165   
C221     C      0.505328220000     0.485724300000     0.141481700000    -0.025165   
C221     C      0.505328220000     0.485724300000     0.641481700000    -0.025165   
C221     C      0.505328220000     0.985724300000     0.141481700000    -0.025165   
C221     C      0.505328220000     0.985724300000     0.641481700000    -0.025165   
C222     C      0.024768200000     0.482025150000     0.155856550000     0.000887   
C222     C      0.024768200000     0.482025150000     0.655856550000     0.000887   
C222     C      0.024768200000     0.982025150000     0.155856550000     0.000887   
C222     C      0.024768200000     0.982025150000     0.655856550000     0.000887   
C222     C      0.524768200000     0.482025150000     0.155856550000     0.000887   
C222     C      0.524768200000     0.482025150000     0.655856550000     0.000887   
C222     C      0.524768200000     0.982025150000     0.155856550000     0.000887   
C222     C      0.524768200000     0.982025150000     0.655856550000     0.000887   
C223     C      0.036030570000     0.005258860000     0.187379450000     0.005362   
C223     C      0.036030570000     0.005258860000     0.687379450000     0.005362   
C223     C      0.036030570000     0.505258860000     0.187379450000     0.005362   
C223     C      0.036030570000     0.505258860000     0.687379450000     0.005362   
C223     C      0.536030570000     0.005258860000     0.187379450000     0.005362   
C223     C      0.536030570000     0.005258860000     0.687379450000     0.005362   
C223     C      0.536030570000     0.505258860000     0.187379450000     0.005362   
C223     C      0.536030570000     0.505258860000     0.687379450000     0.005362   
C224     C      0.020196550000     0.489661725000     0.176728635000     0.003523   
C224     C      0.020196550000     0.489661725000     0.676728635000     0.003523   
C224     C      0.020196550000     0.989661725000     0.176728635000     0.003523   
C224     C      0.020196550000     0.989661725000     0.676728635000     0.003523   
C224     C      0.520196550000     0.489661725000     0.176728635000     0.003523   
C224     C      0.520196550000     0.489661725000     0.676728635000     0.003523   
C224     C      0.520196550000     0.989661725000     0.176728635000     0.003523   
C224     C      0.520196550000     0.989661725000     0.676728635000     0.003523   
C225     C      0.027595980000     0.015233575000     0.207038475000    -0.041481   
C225     C      0.027595980000     0.015233575000     0.707038475000    -0.041481   
C225     C      0.027595980000     0.515233575000     0.207038475000    -0.041481   
C225     C      0.027595980000     0.515233575000     0.707038475000    -0.041481   
C225     C      0.527595980000     0.015233575000     0.207038475000    -0.041481   
C225     C      0.527595980000     0.015233575000     0.707038475000    -0.041481   
C225     C      0.527595980000     0.515233575000     0.207038475000    -0.041481   
C225     C      0.527595980000     0.515233575000     0.707038475000    -0.041481   
C226     C      0.056821465000     0.039168955000     0.171192615000     0.000161   
C226     C      0.056821465000     0.039168955000     0.671192615000     0.000161   
C226     C      0.056821465000     0.539168955000     0.171192615000     0.000161   
C226     C      0.056821465000     0.539168955000     0.671192615000     0.000161   
C226     C      0.556821465000     0.039168955000     0.171192615000     0.000161   
C226     C      0.556821465000     0.039168955000     0.671192615000     0.000161   
C226     C      0.556821465000     0.539168955000     0.171192615000     0.000161   
C226     C      0.556821465000     0.539168955000     0.671192615000     0.000161   
C227     C      0.046911365000     0.123822070000     0.100036540000     0.001497   
C227     C      0.046911365000     0.123822070000     0.600036540000     0.001497   
C227     C      0.046911365000     0.623822070000     0.100036540000     0.001497   
C227     C      0.046911365000     0.623822070000     0.600036540000     0.001497   
C227     C      0.546911365000     0.123822070000     0.100036540000     0.001497   
C227     C      0.546911365000     0.123822070000     0.600036540000     0.001497   
C227     C      0.546911365000     0.623822070000     0.100036540000     0.001497   
C227     C      0.546911365000     0.623822070000     0.600036540000     0.001497   
C228     C      0.094627515000     0.263836400000     0.109171525000    -0.000464   
C228     C      0.094627515000     0.263836400000     0.609171525000    -0.000464   
C228     C      0.094627515000     0.763836400000     0.109171525000    -0.000464   
C228     C      0.094627515000     0.763836400000     0.609171525000    -0.000464   
C228     C      0.594627515000     0.263836400000     0.109171525000    -0.000464   
C228     C      0.594627515000     0.263836400000     0.609171525000    -0.000464   
C228     C      0.594627515000     0.763836400000     0.109171525000    -0.000464   
C228     C      0.594627515000     0.763836400000     0.609171525000    -0.000464   
C229     C      0.139733375000     0.288065200000     0.091240615000    -0.089345   
C229     C      0.139733375000     0.288065200000     0.591240615000    -0.089345   
C229     C      0.139733375000     0.788065200000     0.091240615000    -0.089345   
C229     C      0.139733375000     0.788065200000     0.591240615000    -0.089345   
C229     C      0.639733375000     0.288065200000     0.091240615000    -0.089345   
C229     C      0.639733375000     0.288065200000     0.591240615000    -0.089345   
C229     C      0.639733375000     0.788065200000     0.091240615000    -0.089345   
C229     C      0.639733375000     0.788065200000     0.591240615000    -0.089345   
C230     C      0.052517070000     0.102914335000     0.113082210000    -0.031146   
C230     C      0.052517070000     0.102914335000     0.613082210000    -0.031146   
C230     C      0.052517070000     0.602914335000     0.113082210000    -0.031146   
C230     C      0.052517070000     0.602914335000     0.613082210000    -0.031146   
C230     C      0.552517070000     0.102914335000     0.113082210000    -0.031146   
C230     C      0.552517070000     0.102914335000     0.613082210000    -0.031146   
C230     C      0.552517070000     0.602914335000     0.113082210000    -0.031146   
C230     C      0.552517070000     0.602914335000     0.613082210000    -0.031146   
C231     C      0.141930250000     0.270275650000     0.107404320000    -0.152927   
C231     C      0.141930250000     0.270275650000     0.607404320000    -0.152927   
C231     C      0.141930250000     0.770275650000     0.107404320000    -0.152927   
C231     C      0.141930250000     0.770275650000     0.607404320000    -0.152927   
C231     C      0.641930250000     0.270275650000     0.107404320000    -0.152927   
C231     C      0.641930250000     0.270275650000     0.607404320000    -0.152927   
C231     C      0.641930250000     0.770275650000     0.107404320000    -0.152927   
C231     C      0.641930250000     0.770275650000     0.607404320000    -0.152927   
C232     C      0.104709975000     0.215801715000     0.128746180000    -0.039732   
C232     C      0.104709975000     0.215801715000     0.628746180000    -0.039732   
C232     C      0.104709975000     0.715801715000     0.128746180000    -0.039732   
C232     C      0.104709975000     0.715801715000     0.628746180000    -0.039732   
C232     C      0.604709975000     0.215801715000     0.128746180000    -0.039732   
C232     C      0.604709975000     0.215801715000     0.628746180000    -0.039732   
C232     C      0.604709975000     0.715801715000     0.128746180000    -0.039732   
C232     C      0.604709975000     0.715801715000     0.628746180000    -0.039732   
C233     C      0.072074840000     0.189318100000     0.090724080000    -0.095515   
C233     C      0.072074840000     0.189318100000     0.590724080000    -0.095515   
C233     C      0.072074840000     0.689318100000     0.090724080000    -0.095515   
C233     C      0.072074840000     0.689318100000     0.590724080000    -0.095515   
C233     C      0.572074840000     0.189318100000     0.090724080000    -0.095515   
C233     C      0.572074840000     0.189318100000     0.590724080000    -0.095515   
C233     C      0.572074840000     0.689318100000     0.090724080000    -0.095515   
C233     C      0.572074840000     0.689318100000     0.590724080000    -0.095515   
C234     C      0.125721080000     0.232019065000     0.126976130000    -0.019966   
C234     C      0.125721080000     0.232019065000     0.626976130000    -0.019966   
C234     C      0.125721080000     0.732019065000     0.126976130000    -0.019966   
C234     C      0.125721080000     0.732019065000     0.626976130000    -0.019966   
C234     C      0.625721080000     0.232019065000     0.126976130000    -0.019966   
C234     C      0.625721080000     0.232019065000     0.626976130000    -0.019966   
C234     C      0.625721080000     0.732019065000     0.126976130000    -0.019966   
C234     C      0.625721080000     0.732019065000     0.626976130000    -0.019966   
C235     C      0.044322425000     0.164230585000     0.119554705000    -0.165074   
C235     C      0.044322425000     0.164230585000     0.619554705000    -0.165074   
C235     C      0.044322425000     0.664230585000     0.119554705000    -0.165074   
C235     C      0.044322425000     0.664230585000     0.619554705000    -0.165074   
C235     C      0.544322425000     0.164230585000     0.119554705000    -0.165074   
C235     C      0.544322425000     0.164230585000     0.619554705000    -0.165074   
C235     C      0.544322425000     0.664230585000     0.119554705000    -0.165074   
C235     C      0.544322425000     0.664230585000     0.619554705000    -0.165074   
C236     C      0.067338585000     0.162683010000     0.087553160000    -0.098094   
C236     C      0.067338585000     0.162683010000     0.587553160000    -0.098094   
C236     C      0.067338585000     0.662683010000     0.087553160000    -0.098094   
C236     C      0.067338585000     0.662683010000     0.587553160000    -0.098094   
C236     C      0.567338585000     0.162683010000     0.087553160000    -0.098094   
C236     C      0.567338585000     0.162683010000     0.587553160000    -0.098094   
C236     C      0.567338585000     0.662683010000     0.087553160000    -0.098094   
C236     C      0.567338585000     0.662683010000     0.587553160000    -0.098094   
C237     C      0.120817570000     0.255277200000     0.115110105000    -0.022946   
C237     C      0.120817570000     0.255277200000     0.615110105000    -0.022946   
C237     C      0.120817570000     0.755277200000     0.115110105000    -0.022946   
C237     C      0.120817570000     0.755277200000     0.615110105000    -0.022946   
C237     C      0.620817570000     0.255277200000     0.115110105000    -0.022946   
C237     C      0.620817570000     0.255277200000     0.615110105000    -0.022946   
C237     C      0.620817570000     0.755277200000     0.115110105000    -0.022946   
C237     C      0.620817570000     0.755277200000     0.615110105000    -0.022946   
C238     C      0.054420540000     0.150227425000     0.102790400000    -0.158914   
C238     C      0.054420540000     0.150227425000     0.602790400000    -0.158914   
C238     C      0.054420540000     0.650227425000     0.102790400000    -0.158914   
C238     C      0.054420540000     0.650227425000     0.602790400000    -0.158914   
C238     C      0.554420540000     0.150227425000     0.102790400000    -0.158914   
C238     C      0.554420540000     0.150227425000     0.602790400000    -0.158914   
C238     C      0.554420540000     0.650227425000     0.102790400000    -0.158914   
C238     C      0.554420540000     0.650227425000     0.602790400000    -0.158914   
C239     C      0.108050750000     0.191134720000     0.141616315000    -0.094073   
C239     C      0.108050750000     0.191134720000     0.641616315000    -0.094073   
C239     C      0.108050750000     0.691134720000     0.141616315000    -0.094073   
C239     C      0.108050750000     0.691134720000     0.641616315000    -0.094073   
C239     C      0.608050750000     0.191134720000     0.141616315000    -0.094073   
C239     C      0.608050750000     0.191134720000     0.641616315000    -0.094073   
C239     C      0.608050750000     0.691134720000     0.141616315000    -0.094073   
C239     C      0.608050750000     0.691134720000     0.641616315000    -0.094073   
C240     C      0.119102320000     0.166897385000     0.129715325000    -0.02294    
C240     C      0.119102320000     0.166897385000     0.629715325000    -0.02294    
C240     C      0.119102320000     0.666897385000     0.129715325000    -0.02294    
C240     C      0.119102320000     0.666897385000     0.629715325000    -0.02294    
C240     C      0.619102320000     0.166897385000     0.129715325000    -0.02294    
C240     C      0.619102320000     0.166897385000     0.629715325000    -0.02294    
C240     C      0.619102320000     0.666897385000     0.129715325000    -0.02294    
C240     C      0.619102320000     0.666897385000     0.629715325000    -0.02294    
C241     C      0.126584815000     0.144080385000     0.143914910000    -0.161141   
C241     C      0.126584815000     0.144080385000     0.643914910000    -0.161141   
C241     C      0.126584815000     0.644080385000     0.143914910000    -0.161141   
C241     C      0.126584815000     0.644080385000     0.643914910000    -0.161141   
C241     C      0.626584815000     0.144080385000     0.143914910000    -0.161141   
C241     C      0.626584815000     0.144080385000     0.643914910000    -0.161141   
C241     C      0.626584815000     0.644080385000     0.143914910000    -0.161141   
C241     C      0.626584815000     0.644080385000     0.643914910000    -0.161141   
C242     C      0.074486880000     0.247666285000     0.110696400000    -0.0387     
C242     C      0.074486880000     0.247666285000     0.610696400000    -0.0387     
C242     C      0.074486880000     0.747666285000     0.110696400000    -0.0387     
C242     C      0.074486880000     0.747666285000     0.610696400000    -0.0387     
C242     C      0.574486880000     0.247666285000     0.110696400000    -0.0387     
C242     C      0.574486880000     0.247666285000     0.610696400000    -0.0387     
C242     C      0.574486880000     0.747666285000     0.110696400000    -0.0387     
C242     C      0.574486880000     0.747666285000     0.610696400000    -0.0387     
C243     C      0.084953720000     0.204446970000     0.074696005000    -0.004191   
C243     C      0.084953720000     0.204446970000     0.574696005000    -0.004191   
C243     C      0.084953720000     0.704446970000     0.074696005000    -0.004191   
C243     C      0.084953720000     0.704446970000     0.574696005000    -0.004191   
C243     C      0.584953720000     0.204446970000     0.074696005000    -0.004191   
C243     C      0.584953720000     0.204446970000     0.574696005000    -0.004191   
C243     C      0.584953720000     0.704446970000     0.074696005000    -0.004191   
C243     C      0.584953720000     0.704446970000     0.574696005000    -0.004191   
C244     C      0.115163675000     0.198965900000     0.075322330000    -0.005329   
C244     C      0.115163675000     0.198965900000     0.575322330000    -0.005329   
C244     C      0.115163675000     0.698965900000     0.075322330000    -0.005329   
C244     C      0.115163675000     0.698965900000     0.575322330000    -0.005329   
C244     C      0.615163675000     0.198965900000     0.075322330000    -0.005329   
C244     C      0.615163675000     0.198965900000     0.575322330000    -0.005329   
C244     C      0.615163675000     0.698965900000     0.075322330000    -0.005329   
C244     C      0.615163675000     0.698965900000     0.575322330000    -0.005329   
C245     C      0.127767710000     0.217712385000     0.061808935000     0.050194   
C245     C      0.127767710000     0.217712385000     0.561808935000     0.050194   
C245     C      0.127767710000     0.717712385000     0.061808935000     0.050194   
C245     C      0.127767710000     0.717712385000     0.561808935000     0.050194   
C245     C      0.627767710000     0.217712385000     0.061808935000     0.050194   
C245     C      0.627767710000     0.217712385000     0.561808935000     0.050194   
C245     C      0.627767710000     0.717712385000     0.061808935000     0.050194   
C245     C      0.627767710000     0.717712385000     0.561808935000     0.050194   
C246     C      0.152638550000     0.223581450000     0.137172880000     0.022423   
C246     C      0.152638550000     0.223581450000     0.637172880000     0.022423   
C246     C      0.152638550000     0.723581450000     0.137172880000     0.022423   
C246     C      0.152638550000     0.723581450000     0.637172880000     0.022423   
C246     C      0.652638550000     0.223581450000     0.137172880000     0.022423   
C246     C      0.652638550000     0.223581450000     0.637172880000     0.022423   
C246     C      0.652638550000     0.723581450000     0.137172880000     0.022423   
C246     C      0.652638550000     0.723581450000     0.637172880000     0.022423   
C247     C      0.155354590000     0.235645040000     0.158809335000     0.339831   
C247     C      0.155354590000     0.235645040000     0.658809335000     0.339831   
C247     C      0.155354590000     0.735645040000     0.158809335000     0.339831   
C247     C      0.155354590000     0.735645040000     0.658809335000     0.339831   
C247     C      0.655354590000     0.235645040000     0.158809335000     0.339831   
C247     C      0.655354590000     0.235645040000     0.658809335000     0.339831   
C247     C      0.655354590000     0.735645040000     0.158809335000     0.339831   
C247     C      0.655354590000     0.735645040000     0.658809335000     0.339831   
C248     C      0.182531760000     0.228012770000     0.168860450000    -0.218665   
C248     C      0.182531760000     0.228012770000     0.668860450000    -0.218665   
C248     C      0.182531760000     0.728012770000     0.168860450000    -0.218665   
C248     C      0.182531760000     0.728012770000     0.668860450000    -0.218665   
C248     C      0.682531760000     0.228012770000     0.168860450000    -0.218665   
C248     C      0.682531760000     0.228012770000     0.668860450000    -0.218665   
C248     C      0.682531760000     0.728012770000     0.168860450000    -0.218665   
C248     C      0.682531760000     0.728012770000     0.668860450000    -0.218665   
C249     C      0.077567160000     0.146870630000     0.069173775000     0.123813   
C249     C      0.077567160000     0.146870630000     0.569173775000     0.123813   
C249     C      0.077567160000     0.646870630000     0.069173775000     0.123813   
C249     C      0.077567160000     0.646870630000     0.569173775000     0.123813   
C249     C      0.577567160000     0.146870630000     0.069173775000     0.123813   
C249     C      0.577567160000     0.146870630000     0.569173775000     0.123813   
C249     C      0.577567160000     0.646870630000     0.069173775000     0.123813   
C249     C      0.577567160000     0.646870630000     0.569173775000     0.123813   
C250     C      0.101693550000     0.128128260000     0.075340205000    -0.076978   
C250     C      0.101693550000     0.128128260000     0.575340205000    -0.076978   
C250     C      0.101693550000     0.628128260000     0.075340205000    -0.076978   
C250     C      0.101693550000     0.628128260000     0.575340205000    -0.076978   
C250     C      0.601693550000     0.128128260000     0.075340205000    -0.076978   
C250     C      0.601693550000     0.128128260000     0.575340205000    -0.076978   
C250     C      0.601693550000     0.628128260000     0.075340205000    -0.076978   
C250     C      0.601693550000     0.628128260000     0.575340205000    -0.076978   
C251     C      0.116860850000     0.118586765000     0.056728860000    -0.053607   
C251     C      0.116860850000     0.118586765000     0.556728860000    -0.053607   
C251     C      0.116860850000     0.618586765000     0.056728860000    -0.053607   
C251     C      0.116860850000     0.618586765000     0.556728860000    -0.053607   
C251     C      0.616860850000     0.118586765000     0.056728860000    -0.053607   
C251     C      0.616860850000     0.118586765000     0.556728860000    -0.053607   
C251     C      0.616860850000     0.618586765000     0.056728860000    -0.053607   
C251     C      0.616860850000     0.618586765000     0.556728860000    -0.053607   
C252     C      0.049215520000     0.189972220000     0.122749620000     0.240894   
C252     C      0.049215520000     0.189972220000     0.622749620000     0.240894   
C252     C      0.049215520000     0.689972220000     0.122749620000     0.240894   
C252     C      0.049215520000     0.689972220000     0.622749620000     0.240894   
C252     C      0.549215520000     0.189972220000     0.122749620000     0.240894   
C252     C      0.549215520000     0.189972220000     0.622749620000     0.240894   
C252     C      0.549215520000     0.689972220000     0.122749620000     0.240894   
C252     C      0.549215520000     0.689972220000     0.622749620000     0.240894   
C253     C      0.080357050000     0.222593450000     0.117984900000    -0.20031    
C253     C      0.080357050000     0.222593450000     0.617984900000    -0.20031    
C253     C      0.080357050000     0.722593450000     0.117984900000    -0.20031    
C253     C      0.080357050000     0.722593450000     0.617984900000    -0.20031    
C253     C      0.580357050000     0.222593450000     0.117984900000    -0.20031    
C253     C      0.580357050000     0.222593450000     0.617984900000    -0.20031    
C253     C      0.580357050000     0.722593450000     0.117984900000    -0.20031    
C253     C      0.580357050000     0.722593450000     0.617984900000    -0.20031    
C254     C      0.064975640000     0.201745400000     0.109527545000     0.176974   
C254     C      0.064975640000     0.201745400000     0.609527545000     0.176974   
C254     C      0.064975640000     0.701745400000     0.109527545000     0.176974   
C254     C      0.064975640000     0.701745400000     0.609527545000     0.176974   
C254     C      0.564975640000     0.201745400000     0.109527545000     0.176974   
C254     C      0.564975640000     0.201745400000     0.609527545000     0.176974   
C254     C      0.564975640000     0.701745400000     0.109527545000     0.176974   
C254     C      0.564975640000     0.701745400000     0.609527545000     0.176974   
C255     C      0.166053710000     0.273387300000     0.117088100000    -0.602487   
C255     C      0.166053710000     0.273387300000     0.617088100000    -0.602487   
C255     C      0.166053710000     0.773387300000     0.117088100000    -0.602487   
C255     C      0.166053710000     0.773387300000     0.617088100000    -0.602487   
C255     C      0.666053710000     0.273387300000     0.117088100000    -0.602487   
C255     C      0.666053710000     0.273387300000     0.617088100000    -0.602487   
C255     C      0.666053710000     0.773387300000     0.117088100000    -0.602487   
C255     C      0.666053710000     0.773387300000     0.617088100000    -0.602487   
C256     C      0.026619205000     0.117919110000     0.086843990000    -0.20213    
C256     C      0.026619205000     0.117919110000     0.586843990000    -0.20213    
C256     C      0.026619205000     0.617919110000     0.086843990000    -0.20213    
C256     C      0.026619205000     0.617919110000     0.586843990000    -0.20213    
C256     C      0.526619205000     0.117919110000     0.086843990000    -0.20213    
C256     C      0.526619205000     0.117919110000     0.586843990000    -0.20213    
C256     C      0.526619205000     0.617919110000     0.086843990000    -0.20213    
C256     C      0.526619205000     0.617919110000     0.586843990000    -0.20213    
C257     C      0.431020825000     0.099359855000     0.061464415000    -0.125289   
C257     C      0.431020825000     0.099359855000     0.561464415000    -0.125289   
C257     C      0.431020825000     0.599359855000     0.061464415000    -0.125289   
C257     C      0.431020825000     0.599359855000     0.561464415000    -0.125289   
C257     C      0.931020825000     0.099359855000     0.061464415000    -0.125289   
C257     C      0.931020825000     0.099359855000     0.561464415000    -0.125289   
C257     C      0.931020825000     0.599359855000     0.061464415000    -0.125289   
C257     C      0.931020825000     0.599359855000     0.561464415000    -0.125289   
C258     C      0.412433625000     0.116882480000     0.049627155000    -3.12893    
C258     C      0.412433625000     0.116882480000     0.549627155000    -3.12893    
C258     C      0.412433625000     0.616882480000     0.049627155000    -3.12893    
C258     C      0.412433625000     0.616882480000     0.549627155000    -3.12893    
C258     C      0.912433625000     0.116882480000     0.049627155000    -3.12893    
C258     C      0.912433625000     0.116882480000     0.549627155000    -3.12893    
C258     C      0.912433625000     0.616882480000     0.049627155000    -3.12893    
C258     C      0.912433625000     0.616882480000     0.549627155000    -3.12893    
C259     C      0.402144650000     0.139818340000     0.057263090000     0.530346   
C259     C      0.402144650000     0.139818340000     0.557263090000     0.530346   
C259     C      0.402144650000     0.639818340000     0.057263090000     0.530346   
C259     C      0.402144650000     0.639818340000     0.557263090000     0.530346   
C259     C      0.902144650000     0.139818340000     0.057263090000     0.530346   
C259     C      0.902144650000     0.139818340000     0.557263090000     0.530346   
C259     C      0.902144650000     0.639818340000     0.057263090000     0.530346   
C259     C      0.902144650000     0.639818340000     0.557263090000     0.530346   
C260     C      0.359371100000     0.164993090000     0.054780005000     0.252253   
C260     C      0.359371100000     0.164993090000     0.554780005000     0.252253   
C260     C      0.359371100000     0.664993090000     0.054780005000     0.252253   
C260     C      0.359371100000     0.664993090000     0.554780005000     0.252253   
C260     C      0.859371100000     0.164993090000     0.054780005000     0.252253   
C260     C      0.859371100000     0.164993090000     0.554780005000     0.252253   
C260     C      0.859371100000     0.664993090000     0.054780005000     0.252253   
C260     C      0.859371100000     0.664993090000     0.554780005000     0.252253   
C261     C      0.380257150000     0.153480200000     0.045507785000    -0.250621   
C261     C      0.380257150000     0.153480200000     0.545507785000    -0.250621   
C261     C      0.380257150000     0.653480200000     0.045507785000    -0.250621   
C261     C      0.380257150000     0.653480200000     0.545507785000    -0.250621   
C261     C      0.880257150000     0.153480200000     0.045507785000    -0.250621   
C261     C      0.880257150000     0.153480200000     0.545507785000    -0.250621   
C261     C      0.880257150000     0.653480200000     0.045507785000    -0.250621   
C261     C      0.880257150000     0.653480200000     0.545507785000    -0.250621   
C262     C      0.337791680000     0.178521590000     0.042786250000    -0.158096   
C262     C      0.337791680000     0.178521590000     0.542786250000    -0.158096   
C262     C      0.337791680000     0.678521590000     0.042786250000    -0.158096   
C262     C      0.337791680000     0.678521590000     0.542786250000    -0.158096   
C262     C      0.837791680000     0.178521590000     0.042786250000    -0.158096   
C262     C      0.837791680000     0.178521590000     0.542786250000    -0.158096   
C262     C      0.837791680000     0.678521590000     0.042786250000    -0.158096   
C262     C      0.837791680000     0.678521590000     0.542786250000    -0.158096   
C263     C      0.412243365000     0.151948420000     0.077115975000     0.075995   
C263     C      0.412243365000     0.151948420000     0.577115975000     0.075995   
C263     C      0.412243365000     0.651948420000     0.077115975000     0.075995   
C263     C      0.412243365000     0.651948420000     0.577115975000     0.075995   
C263     C      0.912243365000     0.151948420000     0.077115975000     0.075995   
C263     C      0.912243365000     0.151948420000     0.577115975000     0.075995   
C263     C      0.912243365000     0.651948420000     0.077115975000     0.075995   
C263     C      0.912243365000     0.651948420000     0.577115975000     0.075995   
C264     C      0.259343750000     0.231172575000     0.031910835000     0.067729   
C264     C      0.259343750000     0.231172575000     0.531910835000     0.067729   
C264     C      0.259343750000     0.731172575000     0.031910835000     0.067729   
C264     C      0.259343750000     0.731172575000     0.531910835000     0.067729   
C264     C      0.759343750000     0.231172575000     0.031910835000     0.067729   
C264     C      0.759343750000     0.231172575000     0.531910835000     0.067729   
C264     C      0.759343750000     0.731172575000     0.031910835000     0.067729   
C264     C      0.759343750000     0.731172575000     0.531910835000     0.067729   
C265     C      0.261515230000     0.266593250000     0.067354400000    -0.039179   
C265     C      0.261515230000     0.266593250000     0.567354400000    -0.039179   
C265     C      0.261515230000     0.766593250000     0.067354400000    -0.039179   
C265     C      0.261515230000     0.766593250000     0.567354400000    -0.039179   
C265     C      0.761515230000     0.266593250000     0.067354400000    -0.039179   
C265     C      0.761515230000     0.266593250000     0.567354400000    -0.039179   
C265     C      0.761515230000     0.766593250000     0.067354400000    -0.039179   
C265     C      0.761515230000     0.766593250000     0.567354400000    -0.039179   
C266     C      0.260155975000     0.240716650000     0.067597465000    -0.069563   
C266     C      0.260155975000     0.240716650000     0.567597465000    -0.069563   
C266     C      0.260155975000     0.740716650000     0.067597465000    -0.069563   
C266     C      0.260155975000     0.740716650000     0.567597465000    -0.069563   
C266     C      0.760155975000     0.240716650000     0.067597465000    -0.069563   
C266     C      0.760155975000     0.240716650000     0.567597465000    -0.069563   
C266     C      0.760155975000     0.740716650000     0.067597465000    -0.069563   
C266     C      0.760155975000     0.740716650000     0.567597465000    -0.069563   
C267     C      0.268268170000     0.224042310000     0.050547155000    -0.09       
C267     C      0.268268170000     0.224042310000     0.550547155000    -0.09       
C267     C      0.268268170000     0.724042310000     0.050547155000    -0.09       
C267     C      0.268268170000     0.724042310000     0.550547155000    -0.09       
C267     C      0.768268170000     0.224042310000     0.050547155000    -0.09       
C267     C      0.768268170000     0.224042310000     0.550547155000    -0.09       
C267     C      0.768268170000     0.724042310000     0.050547155000    -0.09       
C267     C      0.768268170000     0.724042310000     0.550547155000    -0.09       
C268     C      0.272858085000     0.222324750000     0.013883845000    -0.020776   
C268     C      0.272858085000     0.222324750000     0.513883845000    -0.020776   
C268     C      0.272858085000     0.722324750000     0.013883845000    -0.020776   
C268     C      0.272858085000     0.722324750000     0.513883845000    -0.020776   
C268     C      0.772858085000     0.222324750000     0.013883845000    -0.020776   
C268     C      0.772858085000     0.222324750000     0.513883845000    -0.020776   
C268     C      0.772858085000     0.722324750000     0.013883845000    -0.020776   
C268     C      0.772858085000     0.722324750000     0.513883845000    -0.020776   
C269     C      0.260019330000     0.279545850000     0.086939185000    -0.103053   
C269     C      0.260019330000     0.279545850000     0.586939185000    -0.103053   
C269     C      0.260019330000     0.779545850000     0.086939185000    -0.103053   
C269     C      0.260019330000     0.779545850000     0.586939185000    -0.103053   
C269     C      0.760019330000     0.279545850000     0.086939185000    -0.103053   
C269     C      0.760019330000     0.279545850000     0.586939185000    -0.103053   
C269     C      0.760019330000     0.779545850000     0.086939185000    -0.103053   
C269     C      0.760019330000     0.779545850000     0.586939185000    -0.103053   
C270     C      0.036545160000     0.038187475000     0.313145600000    -0.048717   
C270     C      0.036545160000     0.038187475000     0.813145600000    -0.048717   
C270     C      0.036545160000     0.538187475000     0.313145600000    -0.048717   
C270     C      0.036545160000     0.538187475000     0.813145600000    -0.048717   
C270     C      0.536545160000     0.038187475000     0.313145600000    -0.048717   
C270     C      0.536545160000     0.038187475000     0.813145600000    -0.048717   
C270     C      0.536545160000     0.538187475000     0.313145600000    -0.048717   
C270     C      0.536545160000     0.538187475000     0.813145600000    -0.048717   
C271     C      0.064435005000     0.470962400000     0.233800785000    -0.142285   
C271     C      0.064435005000     0.470962400000     0.733800785000    -0.142285   
C271     C      0.064435005000     0.970962400000     0.233800785000    -0.142285   
C271     C      0.064435005000     0.970962400000     0.733800785000    -0.142285   
C271     C      0.564435005000     0.470962400000     0.233800785000    -0.142285   
C271     C      0.564435005000     0.470962400000     0.733800785000    -0.142285   
C271     C      0.564435005000     0.970962400000     0.233800785000    -0.142285   
C271     C      0.564435005000     0.970962400000     0.733800785000    -0.142285   
C272     C      0.050921710000     0.019218615000     0.298845100000     0.263662   
C272     C      0.050921710000     0.019218615000     0.798845100000     0.263662   
C272     C      0.050921710000     0.519218615000     0.298845100000     0.263662   
C272     C      0.050921710000     0.519218615000     0.798845100000     0.263662   
C272     C      0.550921710000     0.019218615000     0.298845100000     0.263662   
C272     C      0.550921710000     0.019218615000     0.798845100000     0.263662   
C272     C      0.550921710000     0.519218615000     0.298845100000     0.263662   
C272     C      0.550921710000     0.519218615000     0.798845100000     0.263662   
C273     C      0.053075880000     0.492652650000     0.247432725000     0.384871   
C273     C      0.053075880000     0.492652650000     0.747432725000     0.384871   
C273     C      0.053075880000     0.992652650000     0.247432725000     0.384871   
C273     C      0.053075880000     0.992652650000     0.747432725000     0.384871   
C273     C      0.553075880000     0.492652650000     0.247432725000     0.384871   
C273     C      0.553075880000     0.492652650000     0.747432725000     0.384871   
C273     C      0.553075880000     0.992652650000     0.247432725000     0.384871   
C273     C      0.553075880000     0.992652650000     0.747432725000     0.384871   
C274     C      0.052643440000     0.023019690000     0.278092535000    -0.566732   
C274     C      0.052643440000     0.023019690000     0.778092535000    -0.566732   
C274     C      0.052643440000     0.523019690000     0.278092535000    -0.566732   
C274     C      0.052643440000     0.523019690000     0.778092535000    -0.566732   
C274     C      0.552643440000     0.023019690000     0.278092535000    -0.566732   
C274     C      0.552643440000     0.023019690000     0.778092535000    -0.566732   
C274     C      0.552643440000     0.523019690000     0.278092535000    -0.566732   
C274     C      0.552643440000     0.523019690000     0.778092535000    -0.566732   
C275     C      0.066162175000     0.002068040000     0.264756085000    -0.147377   
C275     C      0.066162175000     0.002068040000     0.764756085000    -0.147377   
C275     C      0.066162175000     0.502068040000     0.264756085000    -0.147377   
C275     C      0.066162175000     0.502068040000     0.764756085000    -0.147377   
C275     C      0.566162175000     0.002068040000     0.264756085000    -0.147377   
C275     C      0.566162175000     0.002068040000     0.764756085000    -0.147377   
C275     C      0.566162175000     0.502068040000     0.264756085000    -0.147377   
C275     C      0.566162175000     0.502068040000     0.764756085000    -0.147377   
C276     C      0.095460885000     0.493839800000     0.269558650000    -0.036404   
C276     C      0.095460885000     0.493839800000     0.769558650000    -0.036404   
C276     C      0.095460885000     0.993839800000     0.269558650000    -0.036404   
C276     C      0.095460885000     0.993839800000     0.769558650000    -0.036404   
C276     C      0.595460885000     0.493839800000     0.269558650000    -0.036404   
C276     C      0.595460885000     0.493839800000     0.769558650000    -0.036404   
C276     C      0.595460885000     0.993839800000     0.269558650000    -0.036404   
C276     C      0.595460885000     0.993839800000     0.769558650000    -0.036404   
C277     C      0.110146255000     0.012863540000     0.283471600000     1.5569     
C277     C      0.110146255000     0.012863540000     0.783471600000     1.5569     
C277     C      0.110146255000     0.512863540000     0.283471600000     1.5569     
C277     C      0.110146255000     0.512863540000     0.783471600000     1.5569     
C277     C      0.610146255000     0.012863540000     0.283471600000     1.5569     
C277     C      0.610146255000     0.012863540000     0.783471600000     1.5569     
C277     C      0.610146255000     0.512863540000     0.283471600000     1.5569     
C277     C      0.610146255000     0.512863540000     0.783471600000     1.5569     
C278     C      0.139815330000     0.005164100000     0.284813670000     0.057913   
C278     C      0.139815330000     0.005164100000     0.784813670000     0.057913   
C278     C      0.139815330000     0.505164100000     0.284813670000     0.057913   
C278     C      0.139815330000     0.505164100000     0.784813670000     0.057913   
C278     C      0.639815330000     0.005164100000     0.284813670000     0.057913   
C278     C      0.639815330000     0.005164100000     0.784813670000     0.057913   
C278     C      0.639815330000     0.505164100000     0.284813670000     0.057913   
C278     C      0.639815330000     0.505164100000     0.784813670000     0.057913   
C279     C      0.043512185000     0.049323290000     0.268515320000    -0.093229   
C279     C      0.043512185000     0.049323290000     0.768515320000    -0.093229   
C279     C      0.043512185000     0.549323290000     0.268515320000    -0.093229   
C279     C      0.043512185000     0.549323290000     0.768515320000    -0.093229   
C279     C      0.543512185000     0.049323290000     0.268515320000    -0.093229   
C279     C      0.543512185000     0.049323290000     0.768515320000    -0.093229   
C279     C      0.543512185000     0.549323290000     0.268515320000    -0.093229   
C279     C      0.543512185000     0.549323290000     0.768515320000    -0.093229   
C280     C      0.057812215000     0.055891125000     0.249410840000    -0.099934   
C280     C      0.057812215000     0.055891125000     0.749410840000    -0.099934   
C280     C      0.057812215000     0.555891125000     0.249410840000    -0.099934   
C280     C      0.057812215000     0.555891125000     0.749410840000    -0.099934   
C280     C      0.557812215000     0.055891125000     0.249410840000    -0.099934   
C280     C      0.557812215000     0.055891125000     0.749410840000    -0.099934   
C280     C      0.557812215000     0.555891125000     0.249410840000    -0.099934   
C280     C      0.557812215000     0.555891125000     0.749410840000    -0.099934   
C281     C      0.049342880000     0.083741695000     0.242704870000    -0.061595   
C281     C      0.049342880000     0.083741695000     0.742704870000    -0.061595   
C281     C      0.049342880000     0.583741695000     0.242704870000    -0.061595   
C281     C      0.049342880000     0.583741695000     0.742704870000    -0.061595   
C281     C      0.549342880000     0.083741695000     0.242704870000    -0.061595   
C281     C      0.549342880000     0.083741695000     0.742704870000    -0.061595   
C281     C      0.549342880000     0.583741695000     0.242704870000    -0.061595   
C281     C      0.549342880000     0.583741695000     0.742704870000    -0.061595   
C282     C      0.218310200000     0.251672270000     0.425142000000    -0.115478   
C282     C      0.218310200000     0.251672270000     0.925142000000    -0.115478   
C282     C      0.218310200000     0.751672270000     0.425142000000    -0.115478   
C282     C      0.218310200000     0.751672270000     0.925142000000    -0.115478   
C282     C      0.718310200000     0.251672270000     0.425142000000    -0.115478   
C282     C      0.718310200000     0.251672270000     0.925142000000    -0.115478   
C282     C      0.718310200000     0.751672270000     0.425142000000    -0.115478   
C282     C      0.718310200000     0.751672270000     0.925142000000    -0.115478   
C283     C      0.286155400000     0.227792590000     0.448613100000    -0.180679   
C283     C      0.286155400000     0.227792590000     0.948613100000    -0.180679   
C283     C      0.286155400000     0.727792590000     0.448613100000    -0.180679   
C283     C      0.286155400000     0.727792590000     0.948613100000    -0.180679   
C283     C      0.786155400000     0.227792590000     0.448613100000    -0.180679   
C283     C      0.786155400000     0.227792590000     0.948613100000    -0.180679   
C283     C      0.786155400000     0.727792590000     0.448613100000    -0.180679   
C283     C      0.786155400000     0.727792590000     0.948613100000    -0.180679   
C284     C      0.282974125000     0.223224730000     0.468301250000    -0.256309   
C284     C      0.282974125000     0.223224730000     0.968301250000    -0.256309   
C284     C      0.282974125000     0.723224730000     0.468301250000    -0.256309   
C284     C      0.282974125000     0.723224730000     0.968301250000    -0.256309   
C284     C      0.782974125000     0.223224730000     0.468301250000    -0.256309   
C284     C      0.782974125000     0.223224730000     0.968301250000    -0.256309   
C284     C      0.782974125000     0.723224730000     0.468301250000    -0.256309   
C284     C      0.782974125000     0.723224730000     0.968301250000    -0.256309   
C285     C      0.264732330000     0.242408320000     0.436520350000    -0.242575   
C285     C      0.264732330000     0.242408320000     0.936520350000    -0.242575   
C285     C      0.264732330000     0.742408320000     0.436520350000    -0.242575   
C285     C      0.264732330000     0.742408320000     0.936520350000    -0.242575   
C285     C      0.764732330000     0.242408320000     0.436520350000    -0.242575   
C285     C      0.764732330000     0.242408320000     0.936520350000    -0.242575   
C285     C      0.764732330000     0.742408320000     0.436520350000    -0.242575   
C285     C      0.764732330000     0.742408320000     0.936520350000    -0.242575   
C286     C      0.239201785000     0.237586850000     0.437659980000    -0.330739   
C286     C      0.239201785000     0.237586850000     0.937659980000    -0.330739   
C286     C      0.239201785000     0.737586850000     0.437659980000    -0.330739   
C286     C      0.239201785000     0.737586850000     0.937659980000    -0.330739   
C286     C      0.739201785000     0.237586850000     0.437659980000    -0.330739   
C286     C      0.739201785000     0.237586850000     0.937659980000    -0.330739   
C286     C      0.739201785000     0.737586850000     0.437659980000    -0.330739   
C286     C      0.739201785000     0.737586850000     0.937659980000    -0.330739   
C287     C      0.302587150000     0.208633275000     0.481358170000    -0.29571    
C287     C      0.302587150000     0.208633275000     0.981358170000    -0.29571    
C287     C      0.302587150000     0.708633275000     0.481358170000    -0.29571    
C287     C      0.302587150000     0.708633275000     0.981358170000    -0.29571    
C287     C      0.802587150000     0.208633275000     0.481358170000    -0.29571    
C287     C      0.802587150000     0.208633275000     0.981358170000    -0.29571    
C287     C      0.802587150000     0.708633275000     0.481358170000    -0.29571    
C287     C      0.802587150000     0.708633275000     0.981358170000    -0.29571    
C288     C      0.231618200000     0.215476675000     0.448804550000    -0.269525   
C288     C      0.231618200000     0.215476675000     0.948804550000    -0.269525   
C288     C      0.231618200000     0.715476675000     0.448804550000    -0.269525   
C288     C      0.231618200000     0.715476675000     0.948804550000    -0.269525   
C288     C      0.731618200000     0.215476675000     0.448804550000    -0.269525   
C288     C      0.731618200000     0.215476675000     0.948804550000    -0.269525   
C288     C      0.731618200000     0.715476675000     0.448804550000    -0.269525   
C288     C      0.731618200000     0.715476675000     0.948804550000    -0.269525   
N289     N      0.059715090000     0.013411045000     0.179772915000    -0.413294   
N289     N      0.059715090000     0.013411045000     0.679772915000    -0.413294   
N289     N      0.059715090000     0.513411045000     0.179772915000    -0.413294   
N289     N      0.059715090000     0.513411045000     0.679772915000    -0.413294   
N289     N      0.559715090000     0.013411045000     0.179772915000    -0.413294   
N289     N      0.559715090000     0.013411045000     0.679772915000    -0.413294   
N289     N      0.559715090000     0.513411045000     0.179772915000    -0.413294   
N289     N      0.559715090000     0.513411045000     0.679772915000    -0.413294   
N290     N      0.018879970000     0.095241600000     0.092420245000    -0.21752    
N290     N      0.018879970000     0.095241600000     0.592420245000    -0.21752    
N290     N      0.018879970000     0.595241600000     0.092420245000    -0.21752    
N290     N      0.018879970000     0.595241600000     0.592420245000    -0.21752    
N290     N      0.518879970000     0.095241600000     0.092420245000    -0.21752    
N290     N      0.518879970000     0.095241600000     0.592420245000    -0.21752    
N290     N      0.518879970000     0.595241600000     0.092420245000    -0.21752    
N290     N      0.518879970000     0.595241600000     0.592420245000    -0.21752    
N291     N      0.161696465000     0.301026225000     0.091498025000    -0.354796   
N291     N      0.161696465000     0.301026225000     0.591498025000    -0.354796   
N291     N      0.161696465000     0.801026225000     0.091498025000    -0.354796   
N291     N      0.161696465000     0.801026225000     0.591498025000    -0.354796   
N291     N      0.661696465000     0.301026225000     0.091498025000    -0.354796   
N291     N      0.661696465000     0.301026225000     0.591498025000    -0.354796   
N291     N      0.661696465000     0.801026225000     0.091498025000    -0.354796   
N291     N      0.661696465000     0.801026225000     0.591498025000    -0.354796   
N292     N      0.034906895000     0.085323490000     0.108360250000    -0.296566   
N292     N      0.034906895000     0.085323490000     0.608360250000    -0.296566   
N292     N      0.034906895000     0.585323490000     0.108360250000    -0.296566   
N292     N      0.034906895000     0.585323490000     0.608360250000    -0.296566   
N292     N      0.534906895000     0.085323490000     0.108360250000    -0.296566   
N292     N      0.534906895000     0.085323490000     0.608360250000    -0.296566   
N292     N      0.534906895000     0.585323490000     0.108360250000    -0.296566   
N292     N      0.534906895000     0.585323490000     0.608360250000    -0.296566   
N293     N      0.177723380000     0.291108100000     0.107438030000    -0.308204   
N293     N      0.177723380000     0.291108100000     0.607438030000    -0.308204   
N293     N      0.177723380000     0.791108100000     0.107438030000    -0.308204   
N293     N      0.177723380000     0.791108100000     0.607438030000    -0.308204   
N293     N      0.677723380000     0.291108100000     0.107438030000    -0.308204   
N293     N      0.677723380000     0.291108100000     0.607438030000    -0.308204   
N293     N      0.677723380000     0.791108100000     0.107438030000    -0.308204   
N293     N      0.677723380000     0.791108100000     0.607438030000    -0.308204   
O294     O      0.053617075000     0.424213380000     0.294937075000    -0.142152   
O294     O      0.053617075000     0.424213380000     0.794937075000    -0.142152   
O294     O      0.053617075000     0.924213380000     0.294937075000    -0.142152   
O294     O      0.053617075000     0.924213380000     0.794937075000    -0.142152   
O294     O      0.553617075000     0.424213380000     0.294937075000    -0.142152   
O294     O      0.553617075000     0.424213380000     0.794937075000    -0.142152   
O294     O      0.553617075000     0.924213380000     0.294937075000    -0.142152   
O294     O      0.553617075000     0.924213380000     0.794937075000    -0.142152   
O295     O      0.166101850000     0.319217115000     0.252601450000    -3.91669    
O295     O      0.166101850000     0.319217115000     0.752601450000    -3.91669    
O295     O      0.166101850000     0.819217115000     0.252601450000    -3.91669    
O295     O      0.166101850000     0.819217115000     0.752601450000    -3.91669    
O295     O      0.666101850000     0.319217115000     0.252601450000    -3.91669    
O295     O      0.666101850000     0.319217115000     0.752601450000    -3.91669    
O295     O      0.666101850000     0.819217115000     0.252601450000    -3.91669    
O295     O      0.666101850000     0.819217115000     0.752601450000    -3.91669    
O296     O      0.053257605000     0.411305600000     0.261747250000     0.646648   
O296     O      0.053257605000     0.411305600000     0.761747250000     0.646648   
O296     O      0.053257605000     0.911305600000     0.261747250000     0.646648   
O296     O      0.053257605000     0.911305600000     0.761747250000     0.646648   
O296     O      0.553257605000     0.411305600000     0.261747250000     0.646648   
O296     O      0.553257605000     0.411305600000     0.761747250000     0.646648   
O296     O      0.553257605000     0.911305600000     0.261747250000     0.646648   
O296     O      0.553257605000     0.911305600000     0.761747250000     0.646648   
O297     O      0.166461320000     0.332124850000     0.285791280000    -0.121857   
O297     O      0.166461320000     0.332124850000     0.785791280000    -0.121857   
O297     O      0.166461320000     0.832124850000     0.285791280000    -0.121857   
O297     O      0.166461320000     0.832124850000     0.785791280000    -0.121857   
O297     O      0.666461320000     0.332124850000     0.285791280000    -0.121857   
O297     O      0.666461320000     0.332124850000     0.785791280000    -0.121857   
O297     O      0.666461320000     0.832124850000     0.285791280000    -0.121857   
O297     O      0.666461320000     0.832124850000     0.785791280000    -0.121857   
O298     O      0.137937485000     0.353279320000     0.210357785000    -0.417033   
O298     O      0.137937485000     0.353279320000     0.710357785000    -0.417033   
O298     O      0.137937485000     0.853279320000     0.210357785000    -0.417033   
O298     O      0.137937485000     0.853279320000     0.710357785000    -0.417033   
O298     O      0.637937485000     0.353279320000     0.210357785000    -0.417033   
O298     O      0.637937485000     0.353279320000     0.710357785000    -0.417033   
O298     O      0.637937485000     0.853279320000     0.210357785000    -0.417033   
O298     O      0.637937485000     0.853279320000     0.710357785000    -0.417033   
O299     O      0.103785450000     0.379466800000     0.196315540000    -0.155245   
O299     O      0.103785450000     0.379466800000     0.696315540000    -0.155245   
O299     O      0.103785450000     0.879466800000     0.196315540000    -0.155245   
O299     O      0.103785450000     0.879466800000     0.696315540000    -0.155245   
O299     O      0.603785450000     0.379466800000     0.196315540000    -0.155245   
O299     O      0.603785450000     0.379466800000     0.696315540000    -0.155245   
O299     O      0.603785450000     0.879466800000     0.196315540000    -0.155245   
O299     O      0.603785450000     0.879466800000     0.696315540000    -0.155245   
O300     O      0.194833965000     0.382285400000     0.115272985000    -0.304727   
O300     O      0.194833965000     0.382285400000     0.615272985000    -0.304727   
O300     O      0.194833965000     0.882285400000     0.115272985000    -0.304727   
O300     O      0.194833965000     0.882285400000     0.615272985000    -0.304727   
O300     O      0.694833965000     0.382285400000     0.115272985000    -0.304727   
O300     O      0.694833965000     0.382285400000     0.615272985000    -0.304727   
O300     O      0.694833965000     0.882285400000     0.115272985000    -0.304727   
O300     O      0.694833965000     0.882285400000     0.615272985000    -0.304727   
O301     O      0.174387025000     0.346770825000     0.104787690000    -0.223328   
O301     O      0.174387025000     0.346770825000     0.604787690000    -0.223328   
O301     O      0.174387025000     0.846770825000     0.104787690000    -0.223328   
O301     O      0.174387025000     0.846770825000     0.604787690000    -0.223328   
O301     O      0.674387025000     0.346770825000     0.104787690000    -0.223328   
O301     O      0.674387025000     0.346770825000     0.604787690000    -0.223328   
O301     O      0.674387025000     0.846770825000     0.104787690000    -0.223328   
O301     O      0.674387025000     0.846770825000     0.604787690000    -0.223328   
O302     O      0.435881400000     0.155227425000     0.417339830000    -0.218171   
O302     O      0.435881400000     0.155227425000     0.917339830000    -0.218171   
O302     O      0.435881400000     0.655227425000     0.417339830000    -0.218171   
O302     O      0.435881400000     0.655227425000     0.917339830000    -0.218171   
O302     O      0.935881400000     0.155227425000     0.417339830000    -0.218171   
O302     O      0.935881400000     0.155227425000     0.917339830000    -0.218171   
O302     O      0.935881400000     0.655227425000     0.417339830000    -0.218171   
O302     O      0.935881400000     0.655227425000     0.917339830000    -0.218171   
O303     O      0.396244450000     0.151854680000     0.401867630000    -0.25058    
O303     O      0.396244450000     0.151854680000     0.901867630000    -0.25058    
O303     O      0.396244450000     0.651854680000     0.401867630000    -0.25058    
O303     O      0.396244450000     0.651854680000     0.901867630000    -0.25058    
O303     O      0.896244450000     0.151854680000     0.401867630000    -0.25058    
O303     O      0.896244450000     0.151854680000     0.901867630000    -0.25058    
O303     O      0.896244450000     0.651854680000     0.401867630000    -0.25058    
O303     O      0.896244450000     0.651854680000     0.901867630000    -0.25058    
O304     O      0.368424175000     0.193838610000     0.005048455000    -0.212564   
O304     O      0.368424175000     0.193838610000     0.505048455000    -0.212564   
O304     O      0.368424175000     0.693838610000     0.005048455000    -0.212564   
O304     O      0.368424175000     0.693838610000     0.505048455000    -0.212564   
O304     O      0.868424175000     0.193838610000     0.005048455000    -0.212564   
O304     O      0.868424175000     0.193838610000     0.505048455000    -0.212564   
O304     O      0.868424175000     0.693838610000     0.005048455000    -0.212564   
O304     O      0.868424175000     0.693838610000     0.505048455000    -0.212564   
O305     O      0.332895950000     0.182750625000     0.486581600000    -4.66144    
O305     O      0.332895950000     0.182750625000     0.986581600000    -4.66144    
O305     O      0.332895950000     0.682750625000     0.486581600000    -4.66144    
O305     O      0.332895950000     0.682750625000     0.986581600000    -4.66144    
O305     O      0.832895950000     0.182750625000     0.486581600000    -4.66144    
O305     O      0.832895950000     0.182750625000     0.986581600000    -4.66144    
O305     O      0.832895950000     0.682750625000     0.486581600000    -4.66144    
O305     O      0.832895950000     0.682750625000     0.986581600000    -4.66144    
O306     O      0.332629650000     0.200909150000     0.448416250000     0.761656   
O306     O      0.332629650000     0.200909150000     0.948416250000     0.761656   
O306     O      0.332629650000     0.700909150000     0.448416250000     0.761656   
O306     O      0.332629650000     0.700909150000     0.948416250000     0.761656   
O306     O      0.832629650000     0.200909150000     0.448416250000     0.761656   
O306     O      0.832629650000     0.200909150000     0.948416250000     0.761656   
O306     O      0.832629650000     0.700909150000     0.448416250000     0.761656   
O306     O      0.832629650000     0.700909150000     0.948416250000     0.761656   
O307     O      0.238294215000     0.322869420000     0.085975820000    -0.336921   
O307     O      0.238294215000     0.322869420000     0.585975820000    -0.336921   
O307     O      0.238294215000     0.822869420000     0.085975820000    -0.336921   
O307     O      0.238294215000     0.822869420000     0.585975820000    -0.336921   
O307     O      0.738294215000     0.322869420000     0.085975820000    -0.336921   
O307     O      0.738294215000     0.322869420000     0.585975820000    -0.336921   
O307     O      0.738294215000     0.822869420000     0.085975820000    -0.336921   
O307     O      0.738294215000     0.822869420000     0.585975820000    -0.336921   
O308     O      0.414848775000     0.021590470000     0.114464015000    -2.39041    
O308     O      0.414848775000     0.021590470000     0.614464015000    -2.39041    
O308     O      0.414848775000     0.521590470000     0.114464015000    -2.39041    
O308     O      0.414848775000     0.521590470000     0.614464015000    -2.39041    
O308     O      0.914848775000     0.021590470000     0.114464015000    -2.39041    
O308     O      0.914848775000     0.021590470000     0.614464015000    -2.39041    
O308     O      0.914848775000     0.521590470000     0.114464015000    -2.39041    
O308     O      0.914848775000     0.521590470000     0.614464015000    -2.39041    
O309     O      0.275327050000     0.301825880000     0.069256285000    -0.646756   
O309     O      0.275327050000     0.301825880000     0.569256285000    -0.646756   
O309     O      0.275327050000     0.801825880000     0.069256285000    -0.646756   
O309     O      0.275327050000     0.801825880000     0.569256285000    -0.646756   
O309     O      0.775327050000     0.301825880000     0.069256285000    -0.646756   
O309     O      0.775327050000     0.301825880000     0.569256285000    -0.646756   
O309     O      0.775327050000     0.801825880000     0.069256285000    -0.646756   
O309     O      0.775327050000     0.801825880000     0.569256285000    -0.646756   
O310     O      0.377815950000     0.042633950000     0.131183565000    -0.450517   
O310     O      0.377815950000     0.042633950000     0.631183565000    -0.450517   
O310     O      0.377815950000     0.542633950000     0.131183565000    -0.450517   
O310     O      0.377815950000     0.542633950000     0.631183565000    -0.450517   
O310     O      0.877815950000     0.042633950000     0.131183565000    -0.450517   
O310     O      0.877815950000     0.042633950000     0.631183565000    -0.450517   
O310     O      0.877815950000     0.542633950000     0.131183565000    -0.450517   
O310     O      0.877815950000     0.542633950000     0.631183565000    -0.450517   
O311     O      0.324215300000     0.465743720000     0.140592635000    -0.23889    
O311     O      0.324215300000     0.465743720000     0.640592635000    -0.23889    
O311     O      0.324215300000     0.965743720000     0.140592635000    -0.23889    
O311     O      0.324215300000     0.965743720000     0.640592635000    -0.23889    
O311     O      0.824215300000     0.465743720000     0.140592635000    -0.23889    
O311     O      0.824215300000     0.465743720000     0.640592635000    -0.23889    
O311     O      0.824215300000     0.965743720000     0.140592635000    -0.23889    
O311     O      0.824215300000     0.965743720000     0.640592635000    -0.23889    
O312     O      0.343102400000     0.368709900000     0.076844595000    -0.228021   
O312     O      0.343102400000     0.368709900000     0.576844595000    -0.228021   
O312     O      0.343102400000     0.868709900000     0.076844595000    -0.228021   
O312     O      0.343102400000     0.868709900000     0.576844595000    -0.228021   
O312     O      0.843102400000     0.368709900000     0.076844595000    -0.228021   
O312     O      0.843102400000     0.368709900000     0.576844595000    -0.228021   
O312     O      0.843102400000     0.868709900000     0.076844595000    -0.228021   
O312     O      0.843102400000     0.868709900000     0.576844595000    -0.228021   
O313     O      0.416335450000     0.472138450000     0.108183875000    -0.22977    
O313     O      0.416335450000     0.472138450000     0.608183875000    -0.22977    
O313     O      0.416335450000     0.972138450000     0.108183875000    -0.22977    
O313     O      0.416335450000     0.972138450000     0.608183875000    -0.22977    
O313     O      0.916335450000     0.472138450000     0.108183875000    -0.22977    
O313     O      0.916335450000     0.472138450000     0.608183875000    -0.22977    
O313     O      0.916335450000     0.972138450000     0.108183875000    -0.22977    
O313     O      0.916335450000     0.972138450000     0.608183875000    -0.22977    
O314     O      0.244517325000     0.364117650000     0.108035445000    -0.329879   
O314     O      0.244517325000     0.364117650000     0.608035445000    -0.329879   
O314     O      0.244517325000     0.864117650000     0.108035445000    -0.329879   
O314     O      0.244517325000     0.864117650000     0.608035445000    -0.329879   
O314     O      0.744517325000     0.364117650000     0.108035445000    -0.329879   
O314     O      0.744517325000     0.364117650000     0.608035445000    -0.329879   
O314     O      0.744517325000     0.864117650000     0.108035445000    -0.329879   
O314     O      0.744517325000     0.864117650000     0.608035445000    -0.329879   
O315     O      0.313106400000     0.222141700000     0.014671140000    -0.219441   
O315     O      0.313106400000     0.222141700000     0.514671140000    -0.219441   
O315     O      0.313106400000     0.722141700000     0.014671140000    -0.219441   
O315     O      0.313106400000     0.722141700000     0.514671140000    -0.219441   
O315     O      0.813106400000     0.222141700000     0.014671140000    -0.219441   
O315     O      0.813106400000     0.222141700000     0.514671140000    -0.219441   
O315     O      0.813106400000     0.722141700000     0.014671140000    -0.219441   
O315     O      0.813106400000     0.722141700000     0.514671140000    -0.219441   
O316     O      0.277060270000     0.239340960000     0.497569800000    -0.228347   
O316     O      0.277060270000     0.239340960000     0.997569800000    -0.228347   
O316     O      0.277060270000     0.739340960000     0.497569800000    -0.228347   
O316     O      0.277060270000     0.739340960000     0.997569800000    -0.228347   
O316     O      0.777060270000     0.239340960000     0.497569800000    -0.228347   
O316     O      0.777060270000     0.239340960000     0.997569800000    -0.228347   
O316     O      0.777060270000     0.739340960000     0.497569800000    -0.228347   
O316     O      0.777060270000     0.739340960000     0.997569800000    -0.228347   
O317     O      0.253015520000     0.270275550000     0.103423730000    -0.455619   
O317     O      0.253015520000     0.270275550000     0.603423730000    -0.455619   
O317     O      0.253015520000     0.770275550000     0.103423730000    -0.455619   
O317     O      0.253015520000     0.770275550000     0.603423730000    -0.455619   
O317     O      0.753015520000     0.270275550000     0.103423730000    -0.455619   
O317     O      0.753015520000     0.270275550000     0.603423730000    -0.455619   
O317     O      0.753015520000     0.770275550000     0.103423730000    -0.455619   
O317     O      0.753015520000     0.770275550000     0.603423730000    -0.455619   
O318     O      0.217813090000     0.279656400000     0.082362250000    -0.23829    
O318     O      0.217813090000     0.279656400000     0.582362250000    -0.23829    
O318     O      0.217813090000     0.779656400000     0.082362250000    -0.23829    
O318     O      0.217813090000     0.779656400000     0.582362250000    -0.23829    
O318     O      0.717813090000     0.279656400000     0.082362250000    -0.23829    
O318     O      0.717813090000     0.279656400000     0.582362250000    -0.23829    
O318     O      0.717813090000     0.779656400000     0.082362250000    -0.23829    
O318     O      0.717813090000     0.779656400000     0.582362250000    -0.23829    
O319     O      0.280673950000     0.281777380000     0.050433735000    -0.186491   
O319     O      0.280673950000     0.281777380000     0.550433735000    -0.186491   
O319     O      0.280673950000     0.781777380000     0.050433735000    -0.186491   
O319     O      0.280673950000     0.781777380000     0.550433735000    -0.186491   
O319     O      0.780673950000     0.281777380000     0.050433735000    -0.186491   
O319     O      0.780673950000     0.281777380000     0.550433735000    -0.186491   
O319     O      0.780673950000     0.781777380000     0.050433735000    -0.186491   
O319     O      0.780673950000     0.781777380000     0.550433735000    -0.186491   
O320     O      0.320059850000     0.258945850000     0.045424720000    -0.205446   
O320     O      0.320059850000     0.258945850000     0.545424720000    -0.205446   
O320     O      0.320059850000     0.758945850000     0.045424720000    -0.205446   
O320     O      0.320059850000     0.758945850000     0.545424720000    -0.205446   
O320     O      0.820059850000     0.258945850000     0.045424720000    -0.205446   
O320     O      0.820059850000     0.258945850000     0.545424720000    -0.205446   
O320     O      0.820059850000     0.758945850000     0.045424720000    -0.205446   
O320     O      0.820059850000     0.758945850000     0.545424720000    -0.205446   
O321     O      0.101188100000     0.296650975000     0.303296650000    -0.259359   
O321     O      0.101188100000     0.296650975000     0.803296650000    -0.259359   
O321     O      0.101188100000     0.796650975000     0.303296650000    -0.259359   
O321     O      0.101188100000     0.796650975000     0.803296650000    -0.259359   
O321     O      0.601188100000     0.296650975000     0.303296650000    -0.259359   
O321     O      0.601188100000     0.296650975000     0.803296650000    -0.259359   
O321     O      0.601188100000     0.796650975000     0.303296650000    -0.259359   
O321     O      0.601188100000     0.796650975000     0.803296650000    -0.259359   
O322     O      0.048277570000     0.117655260000     0.444061900000    -0.280197   
O322     O      0.048277570000     0.117655260000     0.944061900000    -0.280197   
O322     O      0.048277570000     0.617655260000     0.444061900000    -0.280197   
O322     O      0.048277570000     0.617655260000     0.944061900000    -0.280197   
O322     O      0.548277570000     0.117655260000     0.444061900000    -0.280197   
O322     O      0.548277570000     0.117655260000     0.944061900000    -0.280197   
O322     O      0.548277570000     0.617655260000     0.444061900000    -0.280197   
O322     O      0.548277570000     0.617655260000     0.944061900000    -0.280197   
O323     O      0.105390700000     0.265066700000     0.279618950000    -0.467559   
O323     O      0.105390700000     0.265066700000     0.779618950000    -0.467559   
O323     O      0.105390700000     0.765066700000     0.279618950000    -0.467559   
O323     O      0.105390700000     0.765066700000     0.779618950000    -0.467559   
O323     O      0.605390700000     0.265066700000     0.279618950000    -0.467559   
O323     O      0.605390700000     0.265066700000     0.779618950000    -0.467559   
O323     O      0.605390700000     0.765066700000     0.279618950000    -0.467559   
O323     O      0.605390700000     0.765066700000     0.779618950000    -0.467559   
O324     O      0.052487055000     0.086079600000     0.420377750000    -0.39141    
O324     O      0.052487055000     0.086079600000     0.920377750000    -0.39141    
O324     O      0.052487055000     0.586079600000     0.420377750000    -0.39141    
O324     O      0.052487055000     0.586079600000     0.920377750000    -0.39141    
O324     O      0.552487055000     0.086079600000     0.420377750000    -0.39141    
O324     O      0.552487055000     0.086079600000     0.920377750000    -0.39141    
O324     O      0.552487055000     0.586079600000     0.420377750000    -0.39141    
O324     O      0.552487055000     0.586079600000     0.920377750000    -0.39141    
O325     O      0.007864645000     0.178474300000     0.422195225000    -0.341615   
O325     O      0.007864645000     0.178474300000     0.922195225000    -0.341615   
O325     O      0.007864645000     0.678474300000     0.422195225000    -0.341615   
O325     O      0.007864645000     0.678474300000     0.922195225000    -0.341615   
O325     O      0.507864645000     0.178474300000     0.422195225000    -0.341615   
O325     O      0.507864645000     0.178474300000     0.922195225000    -0.341615   
O325     O      0.507864645000     0.678474300000     0.422195225000    -0.341615   
O325     O      0.507864645000     0.678474300000     0.922195225000    -0.341615   
O326     O      0.000774525000     0.135600985000     0.420563800000    -0.277349   
O326     O      0.000774525000     0.135600985000     0.920563800000    -0.277349   
O326     O      0.000774525000     0.635600985000     0.420563800000    -0.277349   
O326     O      0.000774525000     0.635600985000     0.920563800000    -0.277349   
O326     O      0.500774525000     0.135600985000     0.420563800000    -0.277349   
O326     O      0.500774525000     0.135600985000     0.920563800000    -0.277349   
O326     O      0.500774525000     0.635600985000     0.420563800000    -0.277349   
O326     O      0.500774525000     0.635600985000     0.920563800000    -0.277349   
O327     O      0.135839535000     0.275647900000     0.354407730000    -0.147202   
O327     O      0.135839535000     0.275647900000     0.854407730000    -0.147202   
O327     O      0.135839535000     0.775647900000     0.354407730000    -0.147202   
O327     O      0.135839535000     0.775647900000     0.854407730000    -0.147202   
O327     O      0.635839535000     0.275647900000     0.354407730000    -0.147202   
O327     O      0.635839535000     0.275647900000     0.854407730000    -0.147202   
O327     O      0.635839535000     0.775647900000     0.354407730000    -0.147202   
O327     O      0.635839535000     0.775647900000     0.854407730000    -0.147202   
O328     O      0.149511485000     0.272650400000     0.321990130000    -1.30294    
O328     O      0.149511485000     0.272650400000     0.821990130000    -1.30294    
O328     O      0.149511485000     0.772650400000     0.321990130000    -1.30294    
O328     O      0.149511485000     0.772650400000     0.821990130000    -1.30294    
O328     O      0.649511485000     0.272650400000     0.321990130000    -1.30294    
O328     O      0.649511485000     0.272650400000     0.821990130000    -1.30294    
O328     O      0.649511485000     0.772650400000     0.321990130000    -1.30294    
O328     O      0.649511485000     0.772650400000     0.821990130000    -1.30294    
O329     O      0.036748905000     0.484472575000     0.116581390000    -0.696887   
O329     O      0.036748905000     0.484472575000     0.616581390000    -0.696887   
O329     O      0.036748905000     0.984472575000     0.116581390000    -0.696887   
O329     O      0.036748905000     0.984472575000     0.616581390000    -0.696887   
O329     O      0.536748905000     0.484472575000     0.116581390000    -0.696887   
O329     O      0.536748905000     0.484472575000     0.616581390000    -0.696887   
O329     O      0.536748905000     0.984472575000     0.116581390000    -0.696887   
O329     O      0.536748905000     0.984472575000     0.616581390000    -0.696887   
O330     O      0.494412700000     0.477586100000     0.106286735000    -0.310295   
O330     O      0.494412700000     0.477586100000     0.606286735000    -0.310295   
O330     O      0.494412700000     0.977586100000     0.106286735000    -0.310295   
O330     O      0.494412700000     0.977586100000     0.606286735000    -0.310295   
O330     O      0.994412700000     0.477586100000     0.106286735000    -0.310295   
O330     O      0.994412700000     0.477586100000     0.606286735000    -0.310295   
O330     O      0.994412700000     0.977586100000     0.106286735000    -0.310295   
O330     O      0.994412700000     0.977586100000     0.606286735000    -0.310295   
O331     O      0.045068360000     0.022377370000     0.220681850000    -0.153204   
O331     O      0.045068360000     0.022377370000     0.720681850000    -0.153204   
O331     O      0.045068360000     0.522377370000     0.220681850000    -0.153204   
O331     O      0.045068360000     0.522377370000     0.720681850000    -0.153204   
O331     O      0.545068360000     0.022377370000     0.220681850000    -0.153204   
O331     O      0.545068360000     0.022377370000     0.720681850000    -0.153204   
O331     O      0.545068360000     0.522377370000     0.220681850000    -0.153204   
O331     O      0.545068360000     0.522377370000     0.720681850000    -0.153204   
O332     O      0.002732135000     0.015490890000     0.210387200000    -0.276691   
O332     O      0.002732135000     0.015490890000     0.710387200000    -0.276691   
O332     O      0.002732135000     0.515490890000     0.210387200000    -0.276691   
O332     O      0.002732135000     0.515490890000     0.710387200000    -0.276691   
O332     O      0.502732135000     0.015490890000     0.210387200000    -0.276691   
O332     O      0.502732135000     0.015490890000     0.710387200000    -0.276691   
O332     O      0.502732135000     0.515490890000     0.210387200000    -0.276691   
O332     O      0.502732135000     0.515490890000     0.710387200000    -0.276691   
O333     O      0.429590750000     0.099845695000     0.081094990000    -0.440392   
O333     O      0.429590750000     0.099845695000     0.581094990000    -0.440392   
O333     O      0.429590750000     0.599845695000     0.081094990000    -0.440392   
O333     O      0.429590750000     0.599845695000     0.581094990000    -0.440392   
O333     O      0.929590750000     0.099845695000     0.081094990000    -0.440392   
O333     O      0.929590750000     0.099845695000     0.581094990000    -0.440392   
O333     O      0.929590750000     0.599845695000     0.081094990000    -0.440392   
O333     O      0.929590750000     0.599845695000     0.581094990000    -0.440392   
O334     O      0.447478700000     0.083184225000     0.052084235000    -0.315254   
O334     O      0.447478700000     0.083184225000     0.552084235000    -0.315254   
O334     O      0.447478700000     0.583184225000     0.052084235000    -0.315254   
O334     O      0.447478700000     0.583184225000     0.552084235000    -0.315254   
O334     O      0.947478700000     0.083184225000     0.052084235000    -0.315254   
O334     O      0.947478700000     0.083184225000     0.552084235000    -0.315254   
O334     O      0.947478700000     0.583184225000     0.052084235000    -0.315254   
O334     O      0.947478700000     0.583184225000     0.552084235000    -0.315254   
O335     O      0.320020950000     0.193180310000     0.052094160000    -0.561899   
O335     O      0.320020950000     0.193180310000     0.552094160000    -0.561899   
O335     O      0.320020950000     0.693180310000     0.052094160000    -0.561899   
O335     O      0.320020950000     0.693180310000     0.552094160000    -0.561899   
O335     O      0.820020950000     0.193180310000     0.052094160000    -0.561899   
O335     O      0.820020950000     0.193180310000     0.552094160000    -0.561899   
O335     O      0.820020950000     0.693180310000     0.052094160000    -0.561899   
O335     O      0.820020950000     0.693180310000     0.552094160000    -0.561899   
O336     O      0.337908850000     0.176518850000     0.023083410000    -0.31598    
O336     O      0.337908850000     0.176518850000     0.523083410000    -0.31598    
O336     O      0.337908850000     0.676518850000     0.023083410000    -0.31598    
O336     O      0.337908850000     0.676518850000     0.523083410000    -0.31598    
O336     O      0.837908850000     0.176518850000     0.023083410000    -0.31598    
O336     O      0.837908850000     0.176518850000     0.523083410000    -0.31598    
O336     O      0.837908850000     0.676518850000     0.023083410000    -0.31598    
O336     O      0.837908850000     0.676518850000     0.523083410000    -0.31598    
O337     O      0.273694550000     0.267373950000     0.101247430000    -0.404694   
O337     O      0.273694550000     0.267373950000     0.601247430000    -0.404694   
O337     O      0.273694550000     0.767373950000     0.101247430000    -0.404694   
O337     O      0.273694550000     0.767373950000     0.601247430000    -0.404694   
O337     O      0.773694550000     0.267373950000     0.101247430000    -0.404694   
O337     O      0.773694550000     0.267373950000     0.601247430000    -0.404694   
O337     O      0.773694550000     0.767373950000     0.101247430000    -0.404694   
O337     O      0.773694550000     0.767373950000     0.601247430000    -0.404694   
O338     O      0.240309775000     0.296575935000     0.089676080000    -7.63026    
O338     O      0.240309775000     0.296575935000     0.589676080000    -7.63026    
O338     O      0.240309775000     0.796575935000     0.089676080000    -7.63026    
O338     O      0.240309775000     0.796575935000     0.589676080000    -7.63026    
O338     O      0.740309775000     0.296575935000     0.089676080000    -7.63026    
O338     O      0.740309775000     0.296575935000     0.589676080000    -7.63026    
O338     O      0.740309775000     0.796575935000     0.089676080000    -7.63026    
O338     O      0.740309775000     0.796575935000     0.589676080000    -7.63026    
O339     O      0.265221050000     0.234391210000     0.497456670000     0.308437   
O339     O      0.265221050000     0.234391210000     0.997456670000     0.308437   
O339     O      0.265221050000     0.734391210000     0.497456670000     0.308437   
O339     O      0.265221050000     0.734391210000     0.997456670000     0.308437   
O339     O      0.765221050000     0.234391210000     0.497456670000     0.308437   
O339     O      0.765221050000     0.234391210000     0.997456670000     0.308437   
O339     O      0.765221050000     0.734391210000     0.497456670000     0.308437   
O339     O      0.765221050000     0.734391210000     0.997456670000     0.308437   
O340     O      0.293099500000     0.205604985000     0.015621250000     1.07213    
O340     O      0.293099500000     0.205604985000     0.515621250000     1.07213    
O340     O      0.293099500000     0.705604985000     0.015621250000     1.07213    
O340     O      0.293099500000     0.705604985000     0.515621250000     1.07213    
O340     O      0.793099500000     0.205604985000     0.015621250000     1.07213    
O340     O      0.793099500000     0.205604985000     0.515621250000     1.07213    
O340     O      0.793099500000     0.705604985000     0.015621250000     1.07213    
O340     O      0.793099500000     0.705604985000     0.515621250000     1.07213    
O341     O      0.286689250000     0.202931730000     0.053561000000     0.994765   
O341     O      0.286689250000     0.202931730000     0.553561000000     0.994765   
O341     O      0.286689250000     0.702931730000     0.053561000000     0.994765   
O341     O      0.286689250000     0.702931730000     0.553561000000     0.994765   
O341     O      0.786689250000     0.202931730000     0.053561000000     0.994765   
O341     O      0.786689250000     0.202931730000     0.553561000000     0.994765   
O341     O      0.786689250000     0.702931730000     0.053561000000     0.994765   
O341     O      0.786689250000     0.702931730000     0.553561000000     0.994765   
O342     O      0.017367455000     0.052833205000     0.303762825000     1.1738     
O342     O      0.017367455000     0.052833205000     0.803762825000     1.1738     
O342     O      0.017367455000     0.552833205000     0.303762825000     1.1738     
O342     O      0.017367455000     0.552833205000     0.803762825000     1.1738     
O342     O      0.517367455000     0.052833205000     0.303762825000     1.1738     
O342     O      0.517367455000     0.052833205000     0.803762825000     1.1738     
O342     O      0.517367455000     0.552833205000     0.303762825000     1.1738     
O342     O      0.517367455000     0.552833205000     0.803762825000     1.1738     
O343     O      0.081715300000     0.454623050000     0.243607730000     2.4455     
O343     O      0.081715300000     0.454623050000     0.743607730000     2.4455     
O343     O      0.081715300000     0.954623050000     0.243607730000     2.4455     
O343     O      0.081715300000     0.954623050000     0.743607730000     2.4455     
O343     O      0.581715300000     0.454623050000     0.243607730000     2.4455     
O343     O      0.581715300000     0.454623050000     0.743607730000     2.4455     
O343     O      0.581715300000     0.954623050000     0.243607730000     2.4455     
O343     O      0.581715300000     0.954623050000     0.743607730000     2.4455     
O344     O      0.043152430000     0.038433835000     0.333443550000     0.925485   
O344     O      0.043152430000     0.038433835000     0.833443550000     0.925485   
O344     O      0.043152430000     0.538433835000     0.333443550000     0.925485   
O344     O      0.043152430000     0.538433835000     0.833443550000     0.925485   
O344     O      0.543152430000     0.038433835000     0.333443550000     0.925485   
O344     O      0.543152430000     0.038433835000     0.833443550000     0.925485   
O344     O      0.543152430000     0.538433835000     0.333443550000     0.925485   
O344     O      0.543152430000     0.538433835000     0.833443550000     0.925485   
O345     O      0.055930300000     0.469022425000     0.213927000000     0.920657   
O345     O      0.055930300000     0.469022425000     0.713927000000     0.920657   
O345     O      0.055930300000     0.969022425000     0.213927000000     0.920657   
O345     O      0.055930300000     0.969022425000     0.713927000000     0.920657   
O345     O      0.555930300000     0.469022425000     0.213927000000     0.920657   
O345     O      0.555930300000     0.469022425000     0.713927000000     0.920657   
O345     O      0.555930300000     0.969022425000     0.213927000000     0.920657   
O345     O      0.555930300000     0.969022425000     0.713927000000     0.920657   
O346     O      0.197697640000     0.239645200000     0.420747700000     1.08054    
O346     O      0.197697640000     0.239645200000     0.920747700000     1.08054    
O346     O      0.197697640000     0.739645200000     0.420747700000     1.08054    
O346     O      0.197697640000     0.739645200000     0.920747700000     1.08054    
O346     O      0.697697640000     0.239645200000     0.420747700000     1.08054    
O346     O      0.697697640000     0.239645200000     0.920747700000     1.08054    
O346     O      0.697697640000     0.739645200000     0.420747700000     1.08054    
O346     O      0.697697640000     0.739645200000     0.920747700000     1.08054    
O347     O      0.220399485000     0.274957270000     0.418621200000     1.24373    
O347     O      0.220399485000     0.274957270000     0.918621200000     1.24373    
O347     O      0.220399485000     0.774957270000     0.418621200000     1.24373    
O347     O      0.220399485000     0.774957270000     0.918621200000     1.24373    
O347     O      0.720399485000     0.274957270000     0.418621200000     1.24373    
O347     O      0.720399485000     0.274957270000     0.918621200000     1.24373    
O347     O      0.720399485000     0.774957270000     0.418621200000     1.24373    
O347     O      0.720399485000     0.774957270000     0.918621200000     1.24373    
O348     O      0.321869200000     0.193967490000     0.473775270000     1.00623    
O348     O      0.321869200000     0.193967490000     0.973775270000     1.00623    
O348     O      0.321869200000     0.693967490000     0.473775270000     1.00623    
O348     O      0.321869200000     0.693967490000     0.973775270000     1.00623    
O348     O      0.821869200000     0.193967490000     0.473775270000     1.00623    
O348     O      0.821869200000     0.193967490000     0.973775270000     1.00623    
O348     O      0.821869200000     0.693967490000     0.473775270000     1.00623    
O348     O      0.821869200000     0.693967490000     0.973775270000     1.00623    
O349     O      0.299979750000     0.211509735000     0.000724375000     0.99921    
O349     O      0.299979750000     0.211509735000     0.500724375000     0.99921    
O349     O      0.299979750000     0.711509735000     0.000724375000     0.99921    
O349     O      0.299979750000     0.711509735000     0.500724375000     0.99921    
O349     O      0.799979750000     0.211509735000     0.000724375000     0.99921    
O349     O      0.799979750000     0.211509735000     0.500724375000     0.99921    
O349     O      0.799979750000     0.711509735000     0.000724375000     0.99921    
O349     O      0.799979750000     0.711509735000     0.500724375000     0.99921    


