# generated using pymatgen
data_Zn6H39C70S4N3O42F
_symmetry_space_group_name_H-M   'P 1'
_cell_length_a   45.30099123
_cell_length_b   23.22407115
_cell_length_c   28.54192659
_cell_angle_alpha   75.02365152
_cell_angle_beta   88.96934644
_cell_angle_gamma   91.48949281
_symmetry_Int_Tables_number   1
_chemical_formula_structural   Zn6H39C70S4N3O42F
_chemical_formula_sum   'Zn24 H156 C280 S16 N12 O168 F4'
_cell_volume   28988.93055708
_cell_formula_units_Z   4
loop_
 _symmetry_equiv_pos_site_id
 _symmetry_equiv_pos_as_xyz
  1  'x, y, z'
loop_
 _atom_site_type_symbol
 _atom_site_label
 _atom_site_symmetry_multiplicity
 _atom_site_fract_x
 _atom_site_fract_y
 _atom_site_fract_z
 _atom_site_occupancy
  H  H0  1  0.39198900  0.17416500  0.22366400  1
  C  C1  1  0.41089500  0.17441700  0.24434000  1
  H  H2  1  0.48500600  0.17574700  0.23895800  1
  H  H3  1  0.44187700  0.17319200  0.19220900  1
  C  C4  1  0.43895000  0.17435400  0.22567200  1
  C  C5  1  0.48327400  0.22842300  0.00620287  1
  H  H6  1  0.47594600  0.18524300  0.02288190  1
  H  H7  1  0.49775400  0.24381100  0.02593310  1
  H  H8  1  0.46336100  0.25527700  0.00000821  1
  H  H9  1  0.98499400  0.17583400  0.23898500  1
  H  H10  1  0.94189200  0.17315100  0.19224500  1
  H  H11  1  0.89199700  0.17413900  0.22367300  1
  C  C12  1  0.93895000  0.17439500  0.22568700  1
  C  C13  1  0.91089400  0.17442400  0.24435300  1
  C  C14  1  0.98327400  0.22842300  0.00620143  1
  H  H15  1  0.97594600  0.18524300  0.02288070  1
  H  H16  1  0.99775400  0.24381000  0.02593160  1
  H  H17  1  0.96336100  0.25527600  0.00000750  1
  O  O18  1  0.09594840  0.63026700  0.02398440  1
  O  O19  1  0.29791800  0.64240900  0.03968390  1
  N  N20  1  0.45740500  0.55898500  0.20079900  1
  O  O21  1  0.46537400  0.54831100  0.16015600  1
  C  C22  1  0.42751800  0.57872400  0.20736000  1
  O  O23  1  0.47731000  0.55936200  0.23261300  1
  O  O24  1  0.59594900  0.63026500  0.02398360  1
  O  O25  1  0.79791400  0.64240600  0.03967980  1
  N  N26  1  0.95720600  0.55888300  0.20102600  1
  O  O27  1  0.96520000  0.54816300  0.16037100  1
  O  O28  1  0.97713400  0.55942900  0.23275800  1
  C  C29  1  0.92763500  0.57887300  0.20757100  1
  C  C30  1  0.02675490  0.65692500  0.01490890  1
  O  O31  1  0.00091584  0.65786900  0.03935820  1
  O  O32  1  0.04210550  0.70701400  0.01363890  1
  S  S33  1  0.08715620  0.73593000  0.18441800  1
  O  O34  1  0.06499340  0.68398600  0.20122400  1
  O  O35  1  0.09896430  0.73307400  0.13112000  1
  O  O36  1  0.11537000  0.72925000  0.21669100  1
  Zn  Zn37  1  0.01315560  0.72781600  0.04924610  1
  O  O38  1  0.03014020  0.74212500  0.10460200  1
  C  C39  1  0.06852830  0.79388500  0.18701100  1
  C  C40  1  0.02834840  0.79748800  0.10924000  1
  H  H41  1  0.12553500  0.69656500  0.20788200  1
  H  H42  1  0.03621640  0.84727500  0.15706500  1
  C  C43  1  0.04316590  0.81494500  0.14873800  1
  C  C44  1  0.07853050  0.82561600  0.22039400  1
  O  O45  1  0.01107480  0.83656000  0.07486940  1
  H  H46  1  0.07255560  0.86821900  0.21903500  1
  C  C47  1  0.30823700  0.66277900  0.00068781  1
  O  O48  1  0.37539900  0.59368300  0.24324500  1
  H  H49  1  0.41983400  0.61221300  0.18160700  1
  C  C50  1  0.42161800  0.64557200  0.15408000  1
  H  H51  1  0.33848200  0.69470600  0.02329460  1
  O  O52  1  0.41171200  0.75210600  0.05765350  1
  H  H53  1  0.35442700  0.77743300  0.05275930  1
  O  O54  1  0.36634000  0.74887900  0.04270110  1
  C  C55  1  0.42156500  0.70716700  0.10242500  1
  O  O56  1  0.44154500  0.74550200  0.07445930  1
  H  H57  1  0.43119600  0.81951400  0.00748377  1
  O  O58  1  0.48262400  0.78014400  0.04100080  1
  O  O59  1  0.37358100  0.85227400  0.01204660  1
  Zn  Zn60  1  0.47727100  0.82704100  0.01214030  1
  O  O61  1  0.50091300  0.65790600  0.03932840  1
  C  C62  1  0.52675800  0.65693900  0.01490170  1
  Zn  Zn63  1  0.51315700  0.72784900  0.04922370  1
  O  O64  1  0.54211700  0.70701400  0.01364780  1
  O  O65  1  0.53013900  0.74212800  0.10459800  1
  C  C66  1  0.52835700  0.79750000  0.10922200  1
  H  H67  1  0.62553700  0.69656000  0.20788200  1
  S  S68  1  0.58715900  0.73592700  0.18442100  1
  O  O69  1  0.56499500  0.68398600  0.20122700  1
  O  O70  1  0.59896600  0.73307500  0.13112200  1
  O  O71  1  0.61537400  0.72924500  0.21669300  1
  C  C72  1  0.56853200  0.79388400  0.18701000  1
  H  H73  1  0.53622600  0.84727400  0.15706600  1
  C  C74  1  0.54317400  0.81494900  0.14872800  1
  O  O75  1  0.51108600  0.83659500  0.07484320  1
  C  C76  1  0.57853100  0.82561500  0.22039200  1
  H  H77  1  0.57255800  0.86821800  0.21903700  1
  H  H78  1  0.83849900  0.69461200  0.02329700  1
  C  C79  1  0.80823100  0.66277800  0.00068439  1
  H  H80  1  0.91847000  0.61352400  0.18121900  1
  C  C81  1  0.92465600  0.64494600  0.15327700  1
  O  O82  1  0.87535900  0.59356300  0.24345300  1
  H  H83  1  0.85438400  0.77768100  0.05273200  1
  C  C84  1  0.92163200  0.70682900  0.10246400  1
  O  O85  1  0.94134700  0.74533800  0.07413620  1
  O  O86  1  0.91159900  0.75173600  0.05763510  1
  H  H87  1  0.93119600  0.81941700  0.00757549  1
  O  O88  1  0.86623600  0.74903800  0.04268980  1
  O  O89  1  0.98259100  0.78007800  0.04108660  1
  Zn  Zn90  1  0.97732800  0.82671000  0.01215960  1
  O  O91  1  0.87363800  0.85236900  0.01197370  1
  H  H92  1  0.05510030  0.18761700  0.38873900  1
  C  C93  1  0.09561070  0.02936010  0.36049200  1
  C  C94  1  0.03586440  0.18661200  0.37096000  1
  C  C95  1  0.03146860  0.14034800  0.35170700  1
  C  C96  1  0.00502809  0.13619700  0.32976900  1
  C  C97  1  0.05364710  0.10161600  0.35423400  1
  C  C98  1  0.07357860  0.06820090  0.35700900  1
  O  O99  1  0.12350000  0.04512680  0.35220000  1
  O  O100  1  0.01673200  0.08077780  0.25825600  1
  O  O101  1  0.01069120  0.02364850  0.34474800  1
  H  H102  1  0.01018990  0.00084704  0.32424900  1
  H  H103  1  0.27929500  0.02199210  0.37989600  1
  H  H104  1  0.22195100  0.13524900  0.48894900  1
  H  H105  1  0.17592100  0.03920480  0.48080300  1
  C  C106  1  0.23490400  0.07025390  0.47751700  1
  C  C107  1  0.21764600  0.04946800  0.44403100  1
  C  C108  1  0.24422800  0.13151200  0.47662400  1
  C  C109  1  0.18726100  0.02896680  0.45126400  1
  S  S110  1  0.23725300  0.01935740  0.40303600  1
  O  O111  1  0.29186300  0.02742580  0.49865800  1
  O  O112  1  0.22239800  0.03818740  0.35417800  1
  O  O113  1  0.27001900  0.04221600  0.40221100  1
  C  C114  1  0.16822900  0.00068128  0.42269600  1
  H  H115  1  0.38545700  0.17563100  0.30468900  1
  H  H116  1  0.42828100  0.17576900  0.35423900  1
  C  C117  1  0.40702700  0.17508300  0.29095100  1
  C  C118  1  0.43106200  0.17502600  0.31860000  1
  C  C119  1  0.48390500  0.17905700  0.32737400  1
  C  C120  1  0.45891000  0.17800000  0.29908300  1
  C  C121  1  0.46309300  0.17791900  0.25226800  1
  O  O122  1  0.46290000  0.06740850  0.30083300  1
  S  S123  1  0.49827400  0.07970820  0.30775400  1
  H  H124  1  0.55494000  0.18815700  0.38914200  1
  C  C125  1  0.53576800  0.18689400  0.37131300  1
  C  C126  1  0.53160400  0.14058000  0.35219900  1
  C  C127  1  0.50525300  0.13626600  0.32991900  1
  C  C128  1  0.55398300  0.10227800  0.35458900  1
  C  C129  1  0.57391000  0.06889020  0.35698500  1
  O  O130  1  0.51695400  0.08072930  0.25824100  1
  O  O131  1  0.51124500  0.02376100  0.34475800  1
  H  H132  1  0.51027400  0.00072468  0.32447300  1
  C  C133  1  0.59560600  0.02933230  0.36030900  1
  O  O134  1  0.62353000  0.04418930  0.35125900  1
  C  C135  1  0.66809600  0.00069309  0.42259000  1
  H  H136  1  0.72194600  0.13524200  0.48895000  1
  H  H137  1  0.67588000  0.03919320  0.48074400  1
  C  C138  1  0.73487200  0.07023860  0.47750600  1
  C  C139  1  0.71760500  0.04942560  0.44401000  1
  C  C140  1  0.68718500  0.02897510  0.45116600  1
  O  O141  1  0.72234800  0.03813160  0.35418800  1
  S  S142  1  0.73722800  0.01933640  0.40302800  1
  C  C143  1  0.74422100  0.13150500  0.47661700  1
  H  H144  1  0.77928700  0.02199360  0.37990200  1
  O  O145  1  0.79185300  0.02743470  0.49864800  1
  O  O146  1  0.76999600  0.04222200  0.40220300  1
  H  H147  1  0.88544500  0.17559500  0.30469900  1
  H  H148  1  0.92826400  0.17582100  0.35427200  1
  C  C149  1  0.98383300  0.17917600  0.32735500  1
  C  C150  1  0.95886500  0.17836000  0.29904000  1
  C  C151  1  0.96307300  0.17816700  0.25224600  1
  C  C152  1  0.90701400  0.17511200  0.29096300  1
  C  C153  1  0.93103500  0.17519600  0.31860300  1
  S  S154  1  0.99788500  0.07968970  0.30763600  1
  O  O155  1  0.96250500  0.06764790  0.30057100  1
  C  C156  1  0.01405400  0.22934100  0.37042300  1
  H  H157  1  0.06466650  0.27703400  0.36504000  1
  C  C158  1  0.01976210  0.26898900  0.39080000  1
  C  C159  1  0.00640055  0.33291600  0.44187500  1
  C  C160  1  0.05461640  0.33538500  0.40842700  1
  C  C161  1  0.04816480  0.29133600  0.38731100  1
  H  H162  1  0.03881040  0.39031200  0.45279700  1
  H  H163  1  0.07456100  0.35265600  0.40259500  1
  C  C164  1  0.03409200  0.35624000  0.43576900  1
  O  O165  1  0.28872900  0.20022000  0.47783200  1
  H  H166  1  0.23588300  0.28342600  0.29929100  1
  C  C167  1  0.27556700  0.30639500  0.38536100  1
  C  C168  1  0.22103500  0.32666100  0.35322400  1
  C  C169  1  0.24107600  0.29722700  0.33020300  1
  C  C170  1  0.26857700  0.28564800  0.34700400  1
  H  H171  1  0.28071400  0.31996200  0.47346100  1
  H  H172  1  0.28502200  0.26480300  0.32877100  1
  C  C173  1  0.30439800  0.30091800  0.39479200  1
  C  C174  1  0.31102000  0.29182900  0.43765100  1
  H  H175  1  0.20617800  0.47995700  0.37065100  1
  H  H176  1  0.22889200  0.43530100  0.30568400  1
  H  H177  1  0.26401100  0.48442200  0.25477300  1
  C  C178  1  0.23411100  0.47472800  0.31208100  1
  H  H179  1  0.26000800  0.37108000  0.42691000  1
  H  H180  1  0.21455100  0.37130800  0.41030300  1
  H  H181  1  0.19990700  0.33682300  0.34065300  1
  C  C182  1  0.25625300  0.34214800  0.40429300  1
  C  C183  1  0.22867700  0.34718900  0.39187800  1
  C  C184  1  0.22189500  0.49843000  0.34763900  1
  C  C185  1  0.25503700  0.50335300  0.28193800  1
  C  C186  1  0.31797900  0.34600800  0.37315400  1
  C  C187  1  0.30090900  0.34113000  0.46903600  1
  O  O188  1  0.32659000  0.37824700  0.40114300  1
  C  C189  1  0.31979900  0.52466400  0.38630300  1
  C  C190  1  0.26393100  0.55502000  0.28892700  1
  C  C191  1  0.48725500  0.22658100  0.34718400  1
  O  O192  1  0.39804800  0.31276900  0.38268400  1
  H  H193  1  0.33648400  0.28208200  0.43821800  1
  C  C194  1  0.41315000  0.32739000  0.34246600  1
  H  H195  1  0.47798600  0.27171000  0.42647300  1
  C  C196  1  0.46267300  0.26947000  0.34320300  1
  C  C197  1  0.44058400  0.30068400  0.33803800  1
  Zn  Zn198  1  0.36446500  0.36852300  0.35375500  1
  Zn  Zn199  1  0.35145400  0.34352000  0.47435100  1
  O  O200  1  0.37651000  0.38418800  0.41379200  1
  O  O201  1  0.33579300  0.43684800  0.44637300  1
  O  O202  1  0.33660100  0.33191500  0.34456900  1
  O  O203  1  0.39655500  0.36400200  0.31030400  1
  H  H204  1  0.42545600  0.47926200  0.31566400  1
  C  C205  1  0.39626600  0.42334600  0.38451400  1
  O  O206  1  0.37332200  0.37767200  0.41985400  1
  C  C207  1  0.33710800  0.47321100  0.39726900  1
  O  O208  1  0.34763700  0.45297900  0.35609200  1
  C  C209  1  0.40467400  0.47772300  0.32410800  1
  H  H210  1  0.49136500  0.34828400  0.46505900  1
  C  C211  1  0.41296200  0.53252400  0.26323700  1
  C  C212  1  0.49891100  0.29076900  0.41834300  1
  C  C213  1  0.51392700  0.22956500  0.37041900  1
  H  H214  1  0.56458700  0.27718200  0.36498600  1
  C  C215  1  0.51961600  0.26933100  0.39063400  1
  C  C216  1  0.50636200  0.33297400  0.44189300  1
  C  C217  1  0.55457500  0.33541600  0.40841900  1
  C  C218  1  0.54805400  0.29159100  0.38717600  1
  H  H219  1  0.53882000  0.39028600  0.45281000  1
  H  H220  1  0.57454500  0.35256500  0.40260800  1
  C  C221  1  0.53407000  0.35625200  0.43577900  1
  O  O222  1  0.78873100  0.20021700  0.47784800  1
  C  C223  1  0.72103400  0.32666000  0.35322300  1
  H  H224  1  0.73588400  0.28342600  0.29929100  1
  H  H225  1  0.78502200  0.26480200  0.32877200  1
  H  H226  1  0.78069700  0.31992800  0.47346900  1
  C  C227  1  0.80439100  0.30090900  0.39479700  1
  C  C228  1  0.81099000  0.29181400  0.43766500  1
  C  C229  1  0.77556600  0.30640500  0.38535200  1
  C  C230  1  0.74107600  0.29722700  0.33020200  1
  C  C231  1  0.76857700  0.28565000  0.34700200  1
  H  H232  1  0.70617800  0.47995600  0.37065200  1
  H  H233  1  0.71455000  0.37130800  0.41030300  1
  H  H234  1  0.69990700  0.33682300  0.34065200  1
  H  H235  1  0.72889200  0.43530100  0.30568400  1
  H  H236  1  0.76401100  0.48442300  0.25477400  1
  C  C237  1  0.73411100  0.47472800  0.31208100  1
  H  H238  1  0.76000400  0.37108200  0.42690700  1
  C  C239  1  0.81798600  0.34597800  0.37316500  1
  C  C240  1  0.75625100  0.34215400  0.40428700  1
  C  C241  1  0.72867600  0.34718900  0.39187700  1
  C  C242  1  0.80088600  0.34113100  0.46904200  1
  O  O243  1  0.82660100  0.37820200  0.40116500  1
  C  C244  1  0.83705500  0.47320100  0.39724900  1
  C  C245  1  0.72189500  0.49843000  0.34763900  1
  C  C246  1  0.75503700  0.50335400  0.28193800  1
  C  C247  1  0.81977200  0.52468100  0.38630100  1
  O  O248  1  0.83577000  0.43687200  0.44635800  1
  O  O249  1  0.83660100  0.33186700  0.34457600  1
  H  H250  1  0.83645900  0.28205700  0.43823500  1
  C  C251  1  0.76393100  0.55502100  0.28892800  1
  C  C252  1  0.98733000  0.22660900  0.34721600  1
  C  C253  1  0.99901400  0.29059800  0.41838800  1
  H  H254  1  0.97806200  0.27165300  0.42645000  1
  C  C255  1  0.96278100  0.26960800  0.34328000  1
  C  C256  1  0.94065800  0.30076000  0.33811200  1
  C  C257  1  0.91317900  0.32736700  0.34251400  1
  O  O258  1  0.89806200  0.31270100  0.38271400  1
  Zn  Zn259  1  0.85144100  0.34356000  0.47432900  1
  Zn  Zn260  1  0.86443300  0.36848300  0.35375700  1
  O  O261  1  0.87332800  0.37761400  0.41981900  1
  O  O262  1  0.84758600  0.45296100  0.35607600  1
  H  H263  1  0.99137200  0.34826400  0.46499900  1
  O  O264  1  0.89657200  0.36399800  0.31037100  1
  H  H265  1  0.92559500  0.47902300  0.31579500  1
  C  C266  1  0.89625400  0.42327500  0.38441900  1
  O  O267  1  0.87652200  0.38413700  0.41374800  1
  C  C268  1  0.90477200  0.47774800  0.32404700  1
  C  C269  1  0.91305100  0.53261700  0.26326700  1
  H  H270  1  0.09522270  0.76482100  0.28283200  1
  C  C271  1  0.09629720  0.80908200  0.26633900  1
  C  C272  1  0.11134500  0.84205300  0.29234500  1
  O  O273  1  0.11901500  0.81892100  0.33839300  1
  Zn  Zn274  1  0.14360800  0.87530000  0.32491500  1
  O  O275  1  0.12414300  0.89482900  0.27270000  1
  H  H276  1  0.22156300  0.56925600  0.38278200  1
  C  C277  1  0.26187000  0.62376100  0.33590900  1
  C  C278  1  0.24075300  0.66768100  0.33066100  1
  C  C279  1  0.25270400  0.57510200  0.32632100  1
  C  C280  1  0.23133200  0.54819600  0.35619400  1
  S  S281  1  0.20466200  0.66022500  0.30979200  1
  O  O282  1  0.20165000  0.61021300  0.27849200  1
  O  O283  1  0.18045400  0.65196000  0.35422800  1
  H  H284  1  0.27945300  0.57648800  0.26596100  1
  C  C285  1  0.28839700  0.62279200  0.35874800  1
  C  C286  1  0.30601300  0.56929600  0.37425200  1
  H  H287  1  0.17209900  0.70850500  0.27448400  1
  C  C288  1  0.24793300  0.71522300  0.34584300  1
  O  O289  1  0.19318900  0.72053000  0.27489700  1
  C  C290  1  0.22810100  0.76074200  0.34344000  1
  H  H291  1  0.30553600  0.72934400  0.43469900  1
  C  C292  1  0.29542100  0.67526100  0.36888500  1
  C  C293  1  0.27493300  0.71951000  0.36311100  1
  C  C294  1  0.32132500  0.68746700  0.38200000  1
  C  C295  1  0.32368400  0.71828200  0.41761000  1
  H  H296  1  0.28052400  0.75936900  0.37038300  1
  C  C297  1  0.18696400  0.83715900  0.32990000  1
  C  C298  1  0.20978300  0.79664400  0.33990600  1
  O  O299  1  0.17082900  0.83802900  0.29310100  1
  O  O300  1  0.17584900  0.86471000  0.36031600  1
  N  N301  1  0.39995200  0.58307300  0.26519900  1
  O  O302  1  0.40819200  0.60871400  0.29819800  1
  H  H303  1  0.34360300  0.66301700  0.32329700  1
  H  H304  1  0.39163200  0.68835200  0.34824500  1
  H  H305  1  0.39643500  0.73020600  0.41850600  1
  C  C306  1  0.34575300  0.67864400  0.35543400  1
  C  C307  1  0.37283600  0.69520800  0.36831600  1
  C  C308  1  0.37539000  0.72020400  0.40717000  1
  C  C309  1  0.35070700  0.73282900  0.43112700  1
  H  H310  1  0.35215300  0.75285900  0.46056600  1
  H  H311  1  0.59521800  0.76480600  0.28282500  1
  C  C312  1  0.61134500  0.84201100  0.29234000  1
  C  C313  1  0.59629300  0.80906600  0.26633300  1
  O  O314  1  0.61901700  0.81881400  0.33837800  1
  H  H315  1  0.67210000  0.70850700  0.27448400  1
  O  O316  1  0.67082200  0.83793400  0.29310200  1
  Zn  Zn317  1  0.64358800  0.87515000  0.32489700  1
  O  O318  1  0.62414200  0.89479600  0.27269900  1
  O  O319  1  0.67583700  0.86472100  0.36028500  1
  S  S320  1  0.70466200  0.66022800  0.30979400  1
  O  O321  1  0.70165000  0.61021800  0.27849300  1
  O  O322  1  0.68045400  0.65196200  0.35423000  1
  H  H323  1  0.72156200  0.56925600  0.38278200  1
  H  H324  1  0.77945200  0.57649000  0.26596200  1
  C  C325  1  0.76186800  0.62376600  0.33590800  1
  C  C326  1  0.78839400  0.62280700  0.35874300  1
  C  C327  1  0.74075200  0.66768400  0.33066200  1
  C  C328  1  0.80600200  0.56932100  0.37425500  1
  C  C329  1  0.75270300  0.57510400  0.32632100  1
  C  C330  1  0.73133200  0.54819700  0.35619400  1
  O  O331  1  0.69318900  0.72053300  0.27490000  1
  H  H332  1  0.80553600  0.72934200  0.43469900  1
  C  C333  1  0.79542100  0.67526700  0.36888200  1
  C  C334  1  0.77493500  0.71951500  0.36310900  1
  C  C335  1  0.74793400  0.71522800  0.34584300  1
  C  C336  1  0.82132600  0.68746600  0.38200100  1
  C  C337  1  0.82368500  0.71828000  0.41761100  1
  H  H338  1  0.78052700  0.75937100  0.37038000  1
  C  C339  1  0.72810500  0.76074900  0.34344300  1
  C  C340  1  0.68696000  0.83714800  0.32988600  1
  C  C341  1  0.70978600  0.79665100  0.33991100  1
  H  H342  1  0.84360300  0.66301600  0.32329700  1
  N  N343  1  0.89993100  0.58296800  0.26536400  1
  O  O344  1  0.90820900  0.60872000  0.29827000  1
  C  C345  1  0.84575300  0.67864300  0.35543400  1
  C  C346  1  0.85070700  0.73282800  0.43112800  1
  H  H347  1  0.85215300  0.75285900  0.46056600  1
  H  H348  1  0.89163200  0.68835300  0.34824500  1
  H  H349  1  0.89643500  0.73020700  0.41850600  1
  C  C350  1  0.87283600  0.69520800  0.36831700  1
  C  C351  1  0.87539000  0.72020400  0.40717000  1
  O  O352  1  0.09082010  0.97206700  0.37534100  1
  O  O353  1  0.14064300  0.98485100  0.43682500  1
  Zn  Zn354  1  0.13324000  0.97497000  0.37632400  1
  O  O355  1  0.17383400  0.99195800  0.37938800  1
  O  O356  1  0.24653400  0.95946800  0.49606400  1
  O  O357  1  0.23962400  0.94776300  0.41124800  1
  O  O358  1  0.64049500  0.98493400  0.43665200  1
  Zn  Zn359  1  0.63299700  0.97432000  0.37620500  1
  O  O360  1  0.59041100  0.97218900  0.37553400  1
  O  O361  1  0.67366000  0.99172800  0.37936300  1
  O  O362  1  0.74653200  0.95946300  0.49605800  1
  O  O363  1  0.73962000  0.94774900  0.41124500  1
  C  C364  1  0.26677400  0.16227900  0.50113700  1
  S  S365  1  0.25626200  0.01802600  0.50903000  1
  O  O366  1  0.24812000  0.01751440  0.56136600  1
  C  C367  1  0.36629000  0.08387270  0.71486800  1
  F  F368  1  0.34299400  0.06156880  0.69251500  1
  C  C369  1  0.76677300  0.16227700  0.50114100  1
  S  S370  1  0.75625100  0.01802910  0.50901600  1
  O  O371  1  0.74811600  0.01751490  0.56135700  1
  C  C372  1  0.86648700  0.08347540  0.71513200  1
  F  F373  1  0.84312300  0.06174870  0.69258700  1
  O  O374  1  0.12606600  0.34206900  0.69589000  1
  H  H375  1  0.14579900  0.43498500  0.67913500  1
  O  O376  1  0.26274100  0.16386100  0.54662100  1
  O  O377  1  0.16103600  0.32578500  0.62623500  1
  S  S378  1  0.16011100  0.35476800  0.67212000  1
  O  O379  1  0.16448400  0.42605200  0.66428800  1
  Zn  Zn380  1  0.31473800  0.26131200  0.50946500  1
  Zn  Zn381  1  0.28151200  0.20576600  0.57182500  1
  O  O382  1  0.31255000  0.18112200  0.60727300  1
  O  O383  1  0.25359400  0.23192300  0.61314600  1
  H  H384  1  0.21249500  0.32125800  0.62755900  1
  C  C385  1  0.25606000  0.28661900  0.61420600  1
  C  C386  1  0.23159800  0.31443400  0.64424700  1
  C  C387  1  0.21561000  0.31759300  0.69387800  1
  O  O388  1  0.27601300  0.30897900  0.57464600  1
  S  S389  1  0.23389400  0.30718200  0.74762300  1
  O  O390  1  0.26883900  0.32237300  0.74323900  1
  O  O391  1  0.29414000  0.25389600  0.53029200  1
  C  C392  1  0.31906800  0.28156600  0.52499000  1
  C  C393  1  0.18612700  0.33503600  0.70645200  1
  C  C394  1  0.31516200  0.34474600  0.51972400  1
  H  H395  1  0.32657500  0.14148400  0.67385500  1
  C  C396  1  0.35126100  0.13727700  0.66643500  1
  C  C397  1  0.34084300  0.19289200  0.61768400  1
  O  O398  1  0.35559800  0.24687600  0.58222600  1
  O  O399  1  0.34394000  0.24982300  0.51223400  1
  C  C400  1  0.46769600  0.30248300  0.73358300  1
  H  H401  1  0.46017500  0.27198200  0.71174700  1
  H  H402  1  0.48169300  0.33070700  0.71615200  1
  H  H403  1  0.33689600  0.35129700  0.53328900  1
  O  O404  1  0.66103500  0.32578500  0.62623700  1
  H  H405  1  0.64579800  0.43498500  0.67913500  1
  S  S406  1  0.66011000  0.35476700  0.67212300  1
  O  O407  1  0.62606600  0.34207000  0.69589300  1
  O  O408  1  0.66448400  0.42605200  0.66429000  1
  O  O409  1  0.76275100  0.16384700  0.54663100  1
  H  H410  1  0.82662900  0.14151600  0.67387400  1
  Zn  Zn411  1  0.81474600  0.26133000  0.50947400  1
  Zn  Zn412  1  0.78153300  0.20574500  0.57184500  1
  O  O413  1  0.81258900  0.18108300  0.60731800  1
  H  H414  1  0.71249400  0.32126000  0.62755700  1
  C  C415  1  0.71560900  0.31759100  0.69388000  1
  O  O416  1  0.75360700  0.23191200  0.61316200  1
  O  O417  1  0.79414700  0.25389700  0.53031100  1
  C  C418  1  0.73159600  0.31442900  0.64424900  1
  C  C419  1  0.75606100  0.28661500  0.61421300  1
  O  O420  1  0.77601600  0.30898400  0.57466000  1
  C  C421  1  0.81907000  0.28158500  0.52500300  1
  S  S422  1  0.73389500  0.30717900  0.74762300  1
  O  O423  1  0.76883900  0.32237100  0.74323800  1
  C  C424  1  0.68612600  0.33503600  0.70645500  1
  C  C425  1  0.81515100  0.34477000  0.51972400  1
  H  H426  1  0.83689000  0.35128800  0.53329400  1
  C  C427  1  0.85132000  0.13707400  0.66662200  1
  C  C428  1  0.84088600  0.19282600  0.61778300  1
  O  O429  1  0.85561300  0.24682200  0.58224400  1
  O  O430  1  0.84394400  0.24985600  0.51224000  1
  C  C431  1  0.96769500  0.30248400  0.73358200  1
  H  H432  1  0.96017400  0.27198400  0.71174500  1
  H  H433  1  0.98169300  0.33070900  0.71615100  1
  H  H434  1  0.20447300  0.70579500  0.72648000  1
  H  H435  1  0.70447500  0.70578700  0.72648800  1
  H  H436  1  0.23242300  0.78830700  0.72346000  1
  H  H437  1  0.26262800  0.93695000  0.50569900  1
  H  H438  1  0.76262700  0.93695300  0.50569900  1
  H  H439  1  0.73242400  0.78830400  0.72346000  1
  H  H440  1  0.39020900  0.01247100  0.78170800  1
  C  C441  1  0.37538400  0.03086150  0.76451000  1
  C  C442  1  0.39932300  0.00522511  0.90801000  1
  F  F443  1  0.34495300  0.02630910  0.77575300  1
  C  C444  1  0.87518900  0.03014940  0.76513300  1
  F  F445  1  0.84448700  0.02603040  0.77594800  1
  H  H446  1  0.88846100  0.01046810  0.78426700  1
  C  C447  1  0.89918600  0.00586417  0.90774500  1
  H  H448  1  0.01623590  0.10067700  0.83853800  1
  C  C449  1  0.01720580  0.18864600  0.81660200  1
  C  C450  1  0.02320790  0.16379400  0.88996800  1
  C  C451  1  0.00949284  0.13189900  0.85317500  1
  H  H452  1  0.02628360  0.18067700  0.78382200  1
  H  H453  1  0.03810820  0.14554700  0.91059300  1
  C  C454  1  0.03100160  0.22179800  0.85348100  1
  H  H455  1  0.01877110  0.19443200  0.96888900  1
  H  H456  1  0.00362588  0.25602900  0.75003900  1
  C  C457  1  0.08198370  0.30286600  0.86485900  1
  C  C458  1  0.06019180  0.26609000  0.85868200  1
  H  H459  1  0.00595892  0.26204900  0.94976600  1
  O  O460  1  0.01084490  0.32640900  0.86267300  1
  O  O461  1  0.12961700  0.33359900  0.90297600  1
  C  C462  1  0.10918200  0.34922700  0.87234600  1
  O  O463  1  0.13637100  0.38124200  0.79488100  1
  H  H464  1  0.15704100  0.30170700  0.76490600  1
  C  C465  1  0.16252100  0.38503500  0.77550600  1
  O  O466  1  0.22965900  0.23690100  0.76983100  1
  H  H467  1  0.22567100  0.32591900  0.81824300  1
  C  C468  1  0.17093200  0.33959200  0.75458900  1
  O  O469  1  0.22000600  0.34499300  0.78542300  1
  C  C470  1  0.42589900  0.05833460  0.88913600  1
  C  C471  1  0.44789500  0.09906370  0.87635100  1
  C  C472  1  0.47669700  0.14819700  0.86369300  1
  H  H473  1  0.47134000  0.15637200  0.95155300  1
  C  C474  1  0.48425900  0.20479900  0.82747400  1
  C  C475  1  0.46736400  0.23092600  0.79454300  1
  C  C476  1  0.47828900  0.19459000  0.93647800  1
  H  H477  1  0.46122400  0.20268700  0.77502200  1
  H  H478  1  0.45841200  0.22234700  0.92790900  1
  H  H479  1  0.44929400  0.32173200  0.75033700  1
  C  C480  1  0.48463200  0.27411500  0.76720500  1
  H  H481  1  0.49312800  0.30146200  0.78674200  1
  H  H482  1  0.45024500  0.24786000  0.80936100  1
  N  N483  1  0.49172700  0.29002500  0.87702000  1
  O  O484  1  0.46814700  0.30851900  0.86343300  1
  H  H485  1  0.51623400  0.10068000  0.83854100  1
  C  C486  1  0.49132100  0.18251000  0.89858400  1
  C  C487  1  0.49809800  0.21802900  0.96386900  1
  C  C488  1  0.49868800  0.23769300  0.86216800  1
  C  C489  1  0.51720500  0.18864900  0.81660600  1
  C  C490  1  0.52320500  0.16379400  0.88997300  1
  C  C491  1  0.50948500  0.13190000  0.85317900  1
  H  H492  1  0.52628600  0.18067900  0.78383100  1
  H  H493  1  0.53810500  0.14553900  0.91059900  1
  C  C494  1  0.53100000  0.22181000  0.85347600  1
  H  H495  1  0.51877100  0.19443200  0.96889100  1
  H  H496  1  0.50362800  0.25602700  0.75004000  1
  C  C497  1  0.56017300  0.26621000  0.85858400  1
  H  H498  1  0.50595900  0.26204900  0.94976900  1
  O  O499  1  0.51084300  0.32641300  0.86267200  1
  C  C500  1  0.58200500  0.30282300  0.86490500  1
  H  H501  1  0.65704000  0.30170900  0.76490400  1
  O  O502  1  0.62960000  0.33354500  0.90295700  1
  C  C503  1  0.60917000  0.34930100  0.87232400  1
  C  C504  1  0.66252100  0.38503000  0.77551900  1
  O  O505  1  0.63636600  0.38122800  0.79487700  1
  H  H506  1  0.72567200  0.32591600  0.81824400  1
  O  O507  1  0.72966000  0.23689800  0.76983100  1
  C  C508  1  0.67093400  0.33959200  0.75459500  1
  O  O509  1  0.72000800  0.34499100  0.78542400  1
  C  C510  1  0.92582400  0.05862700  0.88895400  1
  C  C511  1  0.94789600  0.09912650  0.87625100  1
  C  C512  1  0.97671000  0.14818800  0.86369600  1
  H  H513  1  0.97134100  0.15637200  0.95155000  1
  C  C514  1  0.99868800  0.23769000  0.86216600  1
  C  C515  1  0.98425900  0.20479100  0.82747400  1
  C  C516  1  0.99132600  0.18251000  0.89858400  1
  C  C517  1  0.96736200  0.23092200  0.79454300  1
  C  C518  1  0.97829100  0.19459000  0.93647600  1
  C  C519  1  0.99809800  0.21802900  0.96386800  1
  H  H520  1  0.96122100  0.20268700  0.77501900  1
  H  H521  1  0.95841200  0.22234600  0.92790800  1
  H  H522  1  0.94929300  0.32173300  0.75033600  1
  C  C523  1  0.98463000  0.27411400  0.76720400  1
  H  H524  1  0.99312500  0.30146000  0.78674200  1
  H  H525  1  0.95024200  0.24786000  0.80936000  1
  N  N526  1  0.99172700  0.29002400  0.87701700  1
  O  O527  1  0.96814700  0.30852300  0.86343200  1
  O  O528  1  0.11740300  0.40830900  0.85292600  1
  Zn  Zn529  1  0.12537200  0.40768800  0.86734500  1
  O  O530  1  0.08962850  0.45627600  0.89010800  1
  O  O531  1  0.13681500  0.46101000  0.90950000  1
  C  C532  1  0.10927100  0.48084900  0.91401500  1
  H  H533  1  0.11904300  0.53679000  0.96208500  1
  H  H534  1  0.01801050  0.58240500  0.98385300  1
  C  C535  1  0.03558960  0.61002100  0.98966100  1
  C  C536  1  0.10137200  0.52397100  0.94228500  1
  C  C537  1  0.06496180  0.59142600  0.97473800  1
  C  C538  1  0.07223370  0.55101400  0.94598100  1
  N  N539  1  0.05472220  0.55011100  0.90588600  1
  N  N540  1  0.08834140  0.62780100  0.98122000  1
  O  O541  1  0.03129380  0.51645800  0.91076600  1
  O  O542  1  0.06859770  0.56168000  0.86451500  1
  O  O543  1  0.08925940  0.67649600  0.94792500  1
  O  O544  1  0.18064900  0.42332600  0.78844000  1
  Zn  Zn545  1  0.16503000  0.46062600  0.83651300  1
  H  H546  1  0.20681800  0.64032300  0.78563100  1
  H  H547  1  0.24824000  0.57063600  0.92504700  1
  C  C548  1  0.21085600  0.57155300  0.85359600  1
  C  C549  1  0.23407300  0.63068700  0.85831700  1
  C  C550  1  0.25539500  0.64764700  0.88998300  1
  C  C551  1  0.25942500  0.60782700  0.92467300  1
  O  O552  1  0.19208000  0.52372900  0.84978000  1
  O  O553  1  0.19241200  0.52898000  0.84466500  1
  H  H554  1  0.27947300  0.58327700  0.98287900  1
  C  C555  1  0.27785100  0.61429000  0.95785400  1
  C  C556  1  0.21932400  0.71237800  0.75289800  1
  C  C557  1  0.22103100  0.67206000  0.78936400  1
  C  C558  1  0.23975200  0.67774200  0.82495300  1
  C  C559  1  0.29264600  0.66252200  0.96004000  1
  C  C560  1  0.27478500  0.70423500  0.88925700  1
  O  O561  1  0.61741900  0.40837500  0.85290300  1
  Zn  Zn562  1  0.62535400  0.40763700  0.86734900  1
  Zn  Zn563  1  0.66509700  0.46043700  0.83676200  1
  O  O564  1  0.58961800  0.45624600  0.89012900  1
  O  O565  1  0.63680700  0.46098400  0.90950500  1
  H  H566  1  0.51800900  0.58241600  0.98385100  1
  C  C567  1  0.53559100  0.61002800  0.98965900  1
  C  C568  1  0.56496200  0.59142500  0.97473800  1
  N  N569  1  0.55472100  0.55011100  0.90588500  1
  O  O570  1  0.53129300  0.51645700  0.91076500  1
  C  C571  1  0.57223300  0.55101200  0.94598100  1
  O  O572  1  0.56859700  0.56167800  0.86451500  1
  C  C573  1  0.60926500  0.48083200  0.91402000  1
  H  H574  1  0.61904200  0.53678600  0.96208000  1
  C  C575  1  0.60137000  0.52396600  0.94228400  1
  N  N576  1  0.58834200  0.62779800  0.98121900  1
  O  O577  1  0.58926000  0.67649400  0.94792500  1
  O  O578  1  0.68065200  0.42328100  0.78850500  1
  H  H579  1  0.70681700  0.64029700  0.78566300  1
  O  O580  1  0.69224400  0.52956700  0.84403100  1
  C  C581  1  0.71086800  0.57153400  0.85354100  1
  O  O582  1  0.69216200  0.52354800  0.84990900  1
  H  H583  1  0.74824300  0.57063000  0.92504500  1
  H  H584  1  0.77947100  0.58327600  0.98288600  1
  C  C585  1  0.77785300  0.61428500  0.95785300  1
  C  C586  1  0.73405600  0.63065100  0.85842500  1
  C  C587  1  0.75541200  0.64762500  0.88996900  1
  C  C588  1  0.75943500  0.60781500  0.92466500  1
  C  C589  1  0.71932300  0.71237100  0.75290700  1
  C  C590  1  0.79264600  0.66252000  0.96003800  1
  C  C591  1  0.72102100  0.67205000  0.78938500  1
  C  C592  1  0.73972800  0.67775600  0.82497700  1
  C  C593  1  0.77479200  0.70422300  0.88924900  1
  C  C594  1  0.26141900  0.73238000  0.82213200  1
  C  C595  1  0.28670800  0.70996000  0.93025600  1
  C  C596  1  0.23590100  0.75995200  0.75147200  1
  H  H597  1  0.26711000  0.80503200  0.78364100  1
  C  C598  1  0.25562600  0.76901400  0.78473400  1
  C  C599  1  0.28492800  0.75017100  0.85495900  1
  C  C600  1  0.31434400  0.80160400  0.86473000  1
  C  C601  1  0.29023000  0.76118000  0.94737700  1
  N  N602  1  0.29588800  0.80505900  0.96822600  1
  O  O603  1  0.32019400  0.85863800  0.84790700  1
  C  C604  1  0.47198700  0.78998700  0.99948300  1
  O  O605  1  0.33172100  0.69087600  0.99717500  1
  C  C606  1  0.40149400  0.98542900  0.80919600  1
  O  O607  1  0.40461000  0.95544400  0.94387500  1
  O  O608  1  0.37532700  0.99093600  0.88177500  1
  C  C609  1  0.38597400  0.82134700  0.88317900  1
  S  S610  1  0.37727400  0.78320400  0.99763000  1
  O  O611  1  0.35604700  0.76830500  0.96422300  1
  O  O612  1  0.38613400  0.85198800  0.83823100  1
  O  O613  1  0.33391000  0.80767900  0.90098200  1
  Zn  Zn614  1  0.36034900  0.89665400  0.87108700  1
  Zn  Zn615  1  0.38741900  0.86469400  0.94569500  1
  O  O616  1  0.40813900  0.90865300  0.89244400  1
  C  C617  1  0.40818400  0.79064000  0.90090500  1
  C  C618  1  0.40799200  0.77268500  0.95144000  1
  O  O619  1  0.37291700  0.84891100  0.91391300  1
  O  O620  1  0.49095100  0.77002300  0.97446200  1
  C  C621  1  0.44157000  0.79154300  0.99072900  1
  C  C622  1  0.42249700  0.93630600  0.85883500  1
  O  O623  1  0.44247200  0.90380200  0.90783600  1
  H  H624  1  0.45225700  0.76871300  0.93430200  1
  H  H625  1  0.42706100  0.80049200  0.88030500  1
  C  C626  1  0.43432300  0.76926800  0.95940400  1
  C  C627  1  0.78671500  0.70995400  0.93024600  1
  C  C628  1  0.76140400  0.73238800  0.82213800  1
  O  O629  1  0.83170700  0.69087100  0.99717500  1
  C  C630  1  0.73590100  0.75994800  0.75147300  1
  C  C631  1  0.78491300  0.75017400  0.85495000  1
  H  H632  1  0.76711100  0.80503100  0.78363700  1
  C  C633  1  0.81431500  0.80162800  0.86468200  1
  C  C634  1  0.75562400  0.76901400  0.78473400  1
  C  C635  1  0.79023000  0.76117800  0.94736800  1
  N  N636  1  0.79589100  0.80505300  0.96822300  1
  O  O637  1  0.82020000  0.85863900  0.84775500  1
  O  O638  1  0.83384900  0.80761600  0.90095100  1
  C  C639  1  0.97199100  0.78993900  0.99952700  1
  O  O640  1  0.85605000  0.76819200  0.96417700  1
  O  O641  1  0.99096900  0.76995200  0.97451200  1
  C  C642  1  0.94156100  0.79155300  0.99071400  1
  C  C643  1  0.90408900  0.98699400  0.80710100  1
  O  O644  1  0.90455400  0.95567200  0.94358500  1
  O  O645  1  0.87536500  0.99166700  0.88083500  1
  O  O646  1  0.90621400  0.91103600  0.89160000  1
  H  H647  1  0.95227000  0.76876300  0.93432900  1
  H  H648  1  0.92710200  0.80049000  0.88029800  1
  C  C649  1  0.90824400  0.79076100  0.90089300  1
  C  C650  1  0.90801000  0.77273100  0.95144800  1
  C  C651  1  0.93432900  0.76930700  0.95941200  1
  C  C652  1  0.88608300  0.82138500  0.88312300  1
  S  S653  1  0.87725200  0.78320800  0.99764900  1
  O  O654  1  0.88618600  0.85199600  0.83815600  1
  O  O655  1  0.87284100  0.84844100  0.91394600  1
  Zn  Zn656  1  0.86035000  0.89667600  0.87089400  1
  Zn  Zn657  1  0.88735400  0.86459000  0.94560900  1
  C  C658  1  0.92227000  0.93581800  0.86035400  1
  O  O659  1  0.94317300  0.90341900  0.90753100  1
