data_sample_7_relaxed_charged

_audit_creation_method RASPA-1.0
_audit_creation_date 2026-2-5
_audit_author_name ''

_cell_length_a    11.7926
_cell_length_b    20.2201
_cell_length_c    20.3857
_cell_angle_alpha 96.3161
_cell_angle_beta  91.165
_cell_angle_gamma 94.931
_cell_volume      38490.9

_symmetry_cell_setting          triclinic
_symmetry_space_group_name_Hall 'P 1'
_symmetry_space_group_name_H-M  'P 1'
_symmetry_Int_Tables_number     1

_symmetry_equiv_pos_as_xyz 'x,y,z'

loop_
_atom_site_label
_atom_site_type_symbol
_atom_site_fract_x
_atom_site_fract_y
_atom_site_fract_z
_atom_site_charge
Cr0      Cr     0.313189700000     0.166588700000     0.279080850000     0.952721   
Cr0      Cr     0.313189700000     0.166588700000     0.779080850000     0.952721   
Cr0      Cr     0.313189700000     0.666588700000     0.279080850000     0.952721   
Cr0      Cr     0.313189700000     0.666588700000     0.779080850000     0.952721   
Cr0      Cr     0.813189700000     0.166588700000     0.279080850000     0.952721   
Cr0      Cr     0.813189700000     0.166588700000     0.779080850000     0.952721   
Cr0      Cr     0.813189700000     0.666588700000     0.279080850000     0.952721   
Cr0      Cr     0.813189700000     0.666588700000     0.779080850000     0.952721   
Cr1      Cr     0.223338500000     0.230962335000     0.272783700000     0.966852   
Cr1      Cr     0.223338500000     0.230962335000     0.772783700000     0.966852   
Cr1      Cr     0.223338500000     0.730962335000     0.272783700000     0.966852   
Cr1      Cr     0.223338500000     0.730962335000     0.772783700000     0.966852   
Cr1      Cr     0.723338500000     0.230962335000     0.272783700000     0.966852   
Cr1      Cr     0.723338500000     0.230962335000     0.772783700000     0.966852   
Cr1      Cr     0.723338500000     0.730962335000     0.272783700000     0.966852   
Cr1      Cr     0.723338500000     0.730962335000     0.772783700000     0.966852   
Cr2      Cr     0.164438665000     0.149438665000     0.281359700000     0.632286   
Cr2      Cr     0.164438665000     0.149438665000     0.781359700000     0.632286   
Cr2      Cr     0.164438665000     0.649438665000     0.281359700000     0.632286   
Cr2      Cr     0.164438665000     0.649438665000     0.781359700000     0.632286   
Cr2      Cr     0.664438665000     0.149438665000     0.281359700000     0.632286   
Cr2      Cr     0.664438665000     0.149438665000     0.781359700000     0.632286   
Cr2      Cr     0.664438665000     0.649438665000     0.281359700000     0.632286   
Cr2      Cr     0.664438665000     0.649438665000     0.781359700000     0.632286   
Cr3      Cr     0.296381850000     0.307839335000     0.028071085000    -0.007534   
Cr3      Cr     0.296381850000     0.307839335000     0.528071085000    -0.007534   
Cr3      Cr     0.296381850000     0.807839335000     0.028071085000    -0.007534   
Cr3      Cr     0.296381850000     0.807839335000     0.528071085000    -0.007534   
Cr3      Cr     0.796381850000     0.307839335000     0.028071085000    -0.007534   
Cr3      Cr     0.796381850000     0.307839335000     0.528071085000    -0.007534   
Cr3      Cr     0.796381850000     0.807839335000     0.028071085000    -0.007534   
Cr3      Cr     0.796381850000     0.807839335000     0.528071085000    -0.007534   
Cr4      Cr     0.270990100000     0.388037750000     0.047916975000     0.04596    
Cr4      Cr     0.270990100000     0.388037750000     0.547916975000     0.04596    
Cr4      Cr     0.270990100000     0.888037750000     0.047916975000     0.04596    
Cr4      Cr     0.270990100000     0.888037750000     0.547916975000     0.04596    
Cr4      Cr     0.770990100000     0.388037750000     0.047916975000     0.04596    
Cr4      Cr     0.770990100000     0.388037750000     0.547916975000     0.04596    
Cr4      Cr     0.770990100000     0.888037750000     0.047916975000     0.04596    
Cr4      Cr     0.770990100000     0.888037750000     0.547916975000     0.04596    
Cr5      Cr     0.161361740000     0.330630650000     0.017249475000     0.008288   
Cr5      Cr     0.161361740000     0.330630650000     0.517249475000     0.008288   
Cr5      Cr     0.161361740000     0.830630650000     0.017249475000     0.008288   
Cr5      Cr     0.161361740000     0.830630650000     0.517249475000     0.008288   
Cr5      Cr     0.661361740000     0.330630650000     0.017249475000     0.008288   
Cr5      Cr     0.661361740000     0.330630650000     0.517249475000     0.008288   
Cr5      Cr     0.661361740000     0.830630650000     0.017249475000     0.008288   
Cr5      Cr     0.661361740000     0.830630650000     0.517249475000     0.008288   
Cr6      Cr     0.419660330000     0.448415430000     0.280319850000    -0.151566   
Cr6      Cr     0.419660330000     0.448415430000     0.780319850000    -0.151566   
Cr6      Cr     0.419660330000     0.948415430000     0.280319850000    -0.151566   
Cr6      Cr     0.419660330000     0.948415430000     0.780319850000    -0.151566   
Cr6      Cr     0.919660330000     0.448415430000     0.280319850000    -0.151566   
Cr6      Cr     0.919660330000     0.448415430000     0.780319850000    -0.151566   
Cr6      Cr     0.919660330000     0.948415430000     0.280319850000    -0.151566   
Cr6      Cr     0.919660330000     0.948415430000     0.780319850000    -0.151566   
Cr7      Cr     0.065498950000     0.465060920000     0.272861630000    -1.21226    
Cr7      Cr     0.065498950000     0.465060920000     0.772861630000    -1.21226    
Cr7      Cr     0.065498950000     0.965060920000     0.272861630000    -1.21226    
Cr7      Cr     0.065498950000     0.965060920000     0.772861630000    -1.21226    
Cr7      Cr     0.565498950000     0.465060920000     0.272861630000    -1.21226    
Cr7      Cr     0.565498950000     0.465060920000     0.772861630000    -1.21226    
Cr7      Cr     0.565498950000     0.965060920000     0.272861630000    -1.21226    
Cr7      Cr     0.565498950000     0.965060920000     0.772861630000    -1.21226    
Cr8      Cr     0.008382260000     0.386163400000     0.282161500000    -0.46759    
Cr8      Cr     0.008382260000     0.386163400000     0.782161500000    -0.46759    
Cr8      Cr     0.008382260000     0.886163400000     0.282161500000    -0.46759    
Cr8      Cr     0.008382260000     0.886163400000     0.782161500000    -0.46759    
Cr8      Cr     0.508382260000     0.386163400000     0.282161500000    -0.46759    
Cr8      Cr     0.508382260000     0.386163400000     0.782161500000    -0.46759    
Cr8      Cr     0.508382260000     0.886163400000     0.282161500000    -0.46759    
Cr8      Cr     0.508382260000     0.886163400000     0.782161500000    -0.46759    
Cr9      Cr     0.060844780000     0.132191135000     0.037609400000    -0.099338   
Cr9      Cr     0.060844780000     0.132191135000     0.537609400000    -0.099338   
Cr9      Cr     0.060844780000     0.632191135000     0.037609400000    -0.099338   
Cr9      Cr     0.060844780000     0.632191135000     0.537609400000    -0.099338   
Cr9      Cr     0.560844780000     0.132191135000     0.037609400000    -0.099338   
Cr9      Cr     0.560844780000     0.132191135000     0.537609400000    -0.099338   
Cr9      Cr     0.560844780000     0.632191135000     0.037609400000    -0.099338   
Cr9      Cr     0.560844780000     0.632191135000     0.537609400000    -0.099338   
Cr10     Cr     0.009220540000     0.050690310000     0.032918705000     0.133885   
Cr10     Cr     0.009220540000     0.050690310000     0.532918705000     0.133885   
Cr10     Cr     0.009220540000     0.550690310000     0.032918705000     0.133885   
Cr10     Cr     0.009220540000     0.550690310000     0.532918705000     0.133885   
Cr10     Cr     0.509220540000     0.050690310000     0.032918705000     0.133885   
Cr10     Cr     0.509220540000     0.050690310000     0.532918705000     0.133885   
Cr10     Cr     0.509220540000     0.550690310000     0.032918705000     0.133885   
Cr10     Cr     0.509220540000     0.550690310000     0.532918705000     0.133885   
Cr11     Cr     0.418908835000     0.111667885000     0.021007585000     0.104521   
Cr11     Cr     0.418908835000     0.111667885000     0.521007585000     0.104521   
Cr11     Cr     0.418908835000     0.611667885000     0.021007585000     0.104521   
Cr11     Cr     0.418908835000     0.611667885000     0.521007585000     0.104521   
Cr11     Cr     0.918908835000     0.111667885000     0.021007585000     0.104521   
Cr11     Cr     0.918908835000     0.111667885000     0.521007585000     0.104521   
Cr11     Cr     0.918908835000     0.611667885000     0.021007585000     0.104521   
Cr11     Cr     0.918908835000     0.611667885000     0.521007585000     0.104521   
H12      H      0.146964760000     0.497710850000     0.150179550000    -0.019329   
H12      H      0.146964760000     0.497710850000     0.650179550000    -0.019329   
H12      H      0.146964760000     0.997710850000     0.150179550000    -0.019329   
H12      H      0.146964760000     0.997710850000     0.650179550000    -0.019329   
H12      H      0.646964760000     0.497710850000     0.150179550000    -0.019329   
H12      H      0.646964760000     0.497710850000     0.650179550000    -0.019329   
H12      H      0.646964760000     0.997710850000     0.150179550000    -0.019329   
H12      H      0.646964760000     0.997710850000     0.650179550000    -0.019329   
H13      H      0.469075000000     0.402077020000     0.106644995000     0.195113   
H13      H      0.469075000000     0.402077020000     0.606644995000     0.195113   
H13      H      0.469075000000     0.902077020000     0.106644995000     0.195113   
H13      H      0.469075000000     0.902077020000     0.606644995000     0.195113   
H13      H      0.969075000000     0.402077020000     0.106644995000     0.195113   
H13      H      0.969075000000     0.402077020000     0.606644995000     0.195113   
H13      H      0.969075000000     0.902077020000     0.106644995000     0.195113   
H13      H      0.969075000000     0.902077020000     0.606644995000     0.195113   
H14      H      0.268536030000     0.334801450000     0.153522475000     0.2504     
H14      H      0.268536030000     0.334801450000     0.653522475000     0.2504     
H14      H      0.268536030000     0.834801450000     0.153522475000     0.2504     
H14      H      0.268536030000     0.834801450000     0.653522475000     0.2504     
H14      H      0.768536030000     0.334801450000     0.153522475000     0.2504     
H14      H      0.768536030000     0.334801450000     0.653522475000     0.2504     
H14      H      0.768536030000     0.834801450000     0.153522475000     0.2504     
H14      H      0.768536030000     0.834801450000     0.653522475000     0.2504     
H15      H      0.101815335000     0.284992575000     0.136585460000     0.143891   
H15      H      0.101815335000     0.284992575000     0.636585460000     0.143891   
H15      H      0.101815335000     0.784992575000     0.136585460000     0.143891   
H15      H      0.101815335000     0.784992575000     0.636585460000     0.143891   
H15      H      0.601815335000     0.284992575000     0.136585460000     0.143891   
H15      H      0.601815335000     0.284992575000     0.636585460000     0.143891   
H15      H      0.601815335000     0.784992575000     0.136585460000     0.143891   
H15      H      0.601815335000     0.784992575000     0.636585460000     0.143891   
H16      H      0.351809000000     0.105181940000     0.087581770000     0.311675   
H16      H      0.351809000000     0.105181940000     0.587581770000     0.311675   
H16      H      0.351809000000     0.605181940000     0.087581770000     0.311675   
H16      H      0.351809000000     0.605181940000     0.587581770000     0.311675   
H16      H      0.851809000000     0.105181940000     0.087581770000     0.311675   
H16      H      0.851809000000     0.105181940000     0.587581770000     0.311675   
H16      H      0.851809000000     0.605181940000     0.087581770000     0.311675   
H16      H      0.851809000000     0.605181940000     0.587581770000     0.311675   
H17      H      0.273935650000     0.077539235000     0.174921900000     0.07241    
H17      H      0.273935650000     0.077539235000     0.674921900000     0.07241    
H17      H      0.273935650000     0.577539235000     0.174921900000     0.07241    
H17      H      0.273935650000     0.577539235000     0.674921900000     0.07241    
H17      H      0.773935650000     0.077539235000     0.174921900000     0.07241    
H17      H      0.773935650000     0.077539235000     0.674921900000     0.07241    
H17      H      0.773935650000     0.577539235000     0.174921900000     0.07241    
H17      H      0.773935650000     0.577539235000     0.674921900000     0.07241    
H18      H      0.436859965000     0.129117115000     0.153974100000     0.155016   
H18      H      0.436859965000     0.129117115000     0.653974100000     0.155016   
H18      H      0.436859965000     0.629117115000     0.153974100000     0.155016   
H18      H      0.436859965000     0.629117115000     0.653974100000     0.155016   
H18      H      0.936859965000     0.129117115000     0.153974100000     0.155016   
H18      H      0.936859965000     0.129117115000     0.653974100000     0.155016   
H18      H      0.936859965000     0.629117115000     0.153974100000     0.155016   
H18      H      0.936859965000     0.629117115000     0.653974100000     0.155016   
H19      H      0.407578000000     0.190185450000     0.154280750000     0.220156   
H19      H      0.407578000000     0.190185450000     0.654280750000     0.220156   
H19      H      0.407578000000     0.690185450000     0.154280750000     0.220156   
H19      H      0.407578000000     0.690185450000     0.654280750000     0.220156   
H19      H      0.907578000000     0.190185450000     0.154280750000     0.220156   
H19      H      0.907578000000     0.190185450000     0.654280750000     0.220156   
H19      H      0.907578000000     0.690185450000     0.154280750000     0.220156   
H19      H      0.907578000000     0.690185450000     0.654280750000     0.220156   
H20      H      0.416748970000     0.491883875000     0.106404625000     0.056024   
H20      H      0.416748970000     0.491883875000     0.606404625000     0.056024   
H20      H      0.416748970000     0.991883875000     0.106404625000     0.056024   
H20      H      0.416748970000     0.991883875000     0.606404625000     0.056024   
H20      H      0.916748970000     0.491883875000     0.106404625000     0.056024   
H20      H      0.916748970000     0.491883875000     0.606404625000     0.056024   
H20      H      0.916748970000     0.991883875000     0.106404625000     0.056024   
H20      H      0.916748970000     0.991883875000     0.606404625000     0.056024   
H21      H      0.489777415000     0.331265850000     0.139836415000    -0.248111   
H21      H      0.489777415000     0.331265850000     0.639836415000    -0.248111   
H21      H      0.489777415000     0.831265850000     0.139836415000    -0.248111   
H21      H      0.489777415000     0.831265850000     0.639836415000    -0.248111   
H21      H      0.989777415000     0.331265850000     0.139836415000    -0.248111   
H21      H      0.989777415000     0.331265850000     0.639836415000    -0.248111   
H21      H      0.989777415000     0.831265850000     0.139836415000    -0.248111   
H21      H      0.989777415000     0.831265850000     0.639836415000    -0.248111   
H22      H      0.350461450000     0.310877325000     0.091685420000     0.269909   
H22      H      0.350461450000     0.310877325000     0.591685420000     0.269909   
H22      H      0.350461450000     0.810877325000     0.091685420000     0.269909   
H22      H      0.350461450000     0.810877325000     0.591685420000     0.269909   
H22      H      0.850461450000     0.310877325000     0.091685420000     0.269909   
H22      H      0.850461450000     0.310877325000     0.591685420000     0.269909   
H22      H      0.850461450000     0.810877325000     0.091685420000     0.269909   
H22      H      0.850461450000     0.810877325000     0.591685420000     0.269909   
H23      H      0.390409300000     0.468667850000     0.145072370000    -9.2502     
H23      H      0.390409300000     0.468667850000     0.645072370000    -9.2502     
H23      H      0.390409300000     0.968667850000     0.145072370000    -9.2502     
H23      H      0.390409300000     0.968667850000     0.645072370000    -9.2502     
H23      H      0.890409300000     0.468667850000     0.145072370000    -9.2502     
H23      H      0.890409300000     0.468667850000     0.645072370000    -9.2502     
H23      H      0.890409300000     0.968667850000     0.145072370000    -9.2502     
H23      H      0.890409300000     0.968667850000     0.645072370000    -9.2502     
H24      H      0.492520330000     0.488317350000     0.203700660000    -0.000998   
H24      H      0.492520330000     0.488317350000     0.703700660000    -0.000998   
H24      H      0.492520330000     0.988317350000     0.203700660000    -0.000998   
H24      H      0.492520330000     0.988317350000     0.703700660000    -0.000998   
H24      H      0.992520330000     0.488317350000     0.203700660000    -0.000998   
H24      H      0.992520330000     0.488317350000     0.703700660000    -0.000998   
H24      H      0.992520330000     0.988317350000     0.203700660000    -0.000998   
H24      H      0.992520330000     0.988317350000     0.703700660000    -0.000998   
H25      H      0.210670085000     0.427658350000     0.234310775000     0.40532    
H25      H      0.210670085000     0.427658350000     0.734310775000     0.40532    
H25      H      0.210670085000     0.927658350000     0.234310775000     0.40532    
H25      H      0.210670085000     0.927658350000     0.734310775000     0.40532    
H25      H      0.710670085000     0.427658350000     0.234310775000     0.40532    
H25      H      0.710670085000     0.427658350000     0.734310775000     0.40532    
H25      H      0.710670085000     0.927658350000     0.234310775000     0.40532    
H25      H      0.710670085000     0.927658350000     0.734310775000     0.40532    
H26      H      0.382761750000     0.414816750000     0.285756080000     0.023023   
H26      H      0.382761750000     0.414816750000     0.785756080000     0.023023   
H26      H      0.382761750000     0.914816750000     0.285756080000     0.023023   
H26      H      0.382761750000     0.914816750000     0.785756080000     0.023023   
H26      H      0.882761750000     0.414816750000     0.285756080000     0.023023   
H26      H      0.882761750000     0.414816750000     0.785756080000     0.023023   
H26      H      0.882761750000     0.914816750000     0.285756080000     0.023023   
H26      H      0.882761750000     0.914816750000     0.785756080000     0.023023   
H27      H      0.344665525000     0.107479930000     0.390508830000     0.070231   
H27      H      0.344665525000     0.107479930000     0.890508830000     0.070231   
H27      H      0.344665525000     0.607479930000     0.390508830000     0.070231   
H27      H      0.344665525000     0.607479930000     0.890508830000     0.070231   
H27      H      0.844665525000     0.107479930000     0.390508830000     0.070231   
H27      H      0.844665525000     0.107479930000     0.890508830000     0.070231   
H27      H      0.844665525000     0.607479930000     0.390508830000     0.070231   
H27      H      0.844665525000     0.607479930000     0.890508830000     0.070231   
H28      H      0.493548800000     0.211481950000     0.344418885000    -0.09096    
H28      H      0.493548800000     0.211481950000     0.844418885000    -0.09096    
H28      H      0.493548800000     0.711481950000     0.344418885000    -0.09096    
H28      H      0.493548800000     0.711481950000     0.844418885000    -0.09096    
H28      H      0.993548800000     0.211481950000     0.344418885000    -0.09096    
H28      H      0.993548800000     0.211481950000     0.844418885000    -0.09096    
H28      H      0.993548800000     0.711481950000     0.344418885000    -0.09096    
H28      H      0.993548800000     0.711481950000     0.844418885000    -0.09096    
H29      H      0.386745950000     0.235832585000     0.396201250000    -0.024107   
H29      H      0.386745950000     0.235832585000     0.896201250000    -0.024107   
H29      H      0.386745950000     0.735832585000     0.396201250000    -0.024107   
H29      H      0.386745950000     0.735832585000     0.896201250000    -0.024107   
H29      H      0.886745950000     0.235832585000     0.396201250000    -0.024107   
H29      H      0.886745950000     0.235832585000     0.896201250000    -0.024107   
H29      H      0.886745950000     0.735832585000     0.396201250000    -0.024107   
H29      H      0.886745950000     0.735832585000     0.896201250000    -0.024107   
H30      H      0.378644350000     0.150056630000     0.437194615000    -0.198186   
H30      H      0.378644350000     0.150056630000     0.937194615000    -0.198186   
H30      H      0.378644350000     0.650056630000     0.437194615000    -0.198186   
H30      H      0.378644350000     0.650056630000     0.937194615000    -0.198186   
H30      H      0.878644350000     0.150056630000     0.437194615000    -0.198186   
H30      H      0.878644350000     0.150056630000     0.937194615000    -0.198186   
H30      H      0.878644350000     0.650056630000     0.437194615000    -0.198186   
H30      H      0.878644350000     0.650056630000     0.937194615000    -0.198186   
H31      H      0.132537065000     0.137150840000     0.202417250000    -0.00827    
H31      H      0.132537065000     0.137150840000     0.702417250000    -0.00827    
H31      H      0.132537065000     0.637150840000     0.202417250000    -0.00827    
H31      H      0.132537065000     0.637150840000     0.702417250000    -0.00827    
H31      H      0.632537065000     0.137150840000     0.202417250000    -0.00827    
H31      H      0.632537065000     0.137150840000     0.702417250000    -0.00827    
H31      H      0.632537065000     0.637150840000     0.202417250000    -0.00827    
H31      H      0.632537065000     0.637150840000     0.702417250000    -0.00827    
H32      H      0.042022920000     0.129440335000     0.172863930000     0.186365   
H32      H      0.042022920000     0.129440335000     0.672863930000     0.186365   
H32      H      0.042022920000     0.629440335000     0.172863930000     0.186365   
H32      H      0.042022920000     0.629440335000     0.672863930000     0.186365   
H32      H      0.542022920000     0.129440335000     0.172863930000     0.186365   
H32      H      0.542022920000     0.129440335000     0.672863930000     0.186365   
H32      H      0.542022920000     0.629440335000     0.172863930000     0.186365   
H32      H      0.542022920000     0.629440335000     0.672863930000     0.186365   
H33      H      0.266235530000     0.104610445000     0.164307650000     0.020961   
H33      H      0.266235530000     0.104610445000     0.664307650000     0.020961   
H33      H      0.266235530000     0.604610445000     0.164307650000     0.020961   
H33      H      0.266235530000     0.604610445000     0.664307650000     0.020961   
H33      H      0.766235530000     0.104610445000     0.164307650000     0.020961   
H33      H      0.766235530000     0.104610445000     0.664307650000     0.020961   
H33      H      0.766235530000     0.604610445000     0.164307650000     0.020961   
H33      H      0.766235530000     0.604610445000     0.664307650000     0.020961   
H34      H      0.024665730000     0.083434650000     0.085251690000    -0.08       
H34      H      0.024665730000     0.083434650000     0.585251690000    -0.08       
H34      H      0.024665730000     0.583434650000     0.085251690000    -0.08       
H34      H      0.024665730000     0.583434650000     0.585251690000    -0.08       
H34      H      0.524665730000     0.083434650000     0.085251690000    -0.08       
H34      H      0.524665730000     0.083434650000     0.585251690000    -0.08       
H34      H      0.524665730000     0.583434650000     0.085251690000    -0.08       
H34      H      0.524665730000     0.583434650000     0.585251690000    -0.08       
H35      H      0.214513720000     0.195599330000     0.214199335000    -0.359524   
H35      H      0.214513720000     0.195599330000     0.714199335000    -0.359524   
H35      H      0.214513720000     0.695599330000     0.214199335000    -0.359524   
H35      H      0.214513720000     0.695599330000     0.714199335000    -0.359524   
H35      H      0.714513720000     0.195599330000     0.214199335000    -0.359524   
H35      H      0.714513720000     0.195599330000     0.714199335000    -0.359524   
H35      H      0.714513720000     0.695599330000     0.214199335000    -0.359524   
H35      H      0.714513720000     0.695599330000     0.714199335000    -0.359524   
H36      H      0.484797150000     0.180077670000     0.128549280000     0.157464   
H36      H      0.484797150000     0.180077670000     0.628549280000     0.157464   
H36      H      0.484797150000     0.680077670000     0.128549280000     0.157464   
H36      H      0.484797150000     0.680077670000     0.628549280000     0.157464   
H36      H      0.984797150000     0.180077670000     0.128549280000     0.157464   
H36      H      0.984797150000     0.180077670000     0.628549280000     0.157464   
H36      H      0.984797150000     0.680077670000     0.128549280000     0.157464   
H36      H      0.984797150000     0.680077670000     0.628549280000     0.157464   
H37      H      0.176777065000     0.112239240000     0.059579560000     0.161969   
H37      H      0.176777065000     0.112239240000     0.559579560000     0.161969   
H37      H      0.176777065000     0.612239240000     0.059579560000     0.161969   
H37      H      0.176777065000     0.612239240000     0.559579560000     0.161969   
H37      H      0.676777065000     0.112239240000     0.059579560000     0.161969   
H37      H      0.676777065000     0.112239240000     0.559579560000     0.161969   
H37      H      0.676777065000     0.612239240000     0.059579560000     0.161969   
H37      H      0.676777065000     0.612239240000     0.559579560000     0.161969   
H38      H      0.101940795000     0.100939035000     0.051116980000     0.645422   
H38      H      0.101940795000     0.100939035000     0.551116980000     0.645422   
H38      H      0.101940795000     0.600939035000     0.051116980000     0.645422   
H38      H      0.101940795000     0.600939035000     0.551116980000     0.645422   
H38      H      0.601940795000     0.100939035000     0.051116980000     0.645422   
H38      H      0.601940795000     0.100939035000     0.551116980000     0.645422   
H38      H      0.601940795000     0.600939035000     0.051116980000     0.645422   
H38      H      0.601940795000     0.600939035000     0.551116980000     0.645422   
H39      H      0.142175250000     0.126564920000     0.024785410000     0.099732   
H39      H      0.142175250000     0.126564920000     0.524785410000     0.099732   
H39      H      0.142175250000     0.626564920000     0.024785410000     0.099732   
H39      H      0.142175250000     0.626564920000     0.524785410000     0.099732   
H39      H      0.642175250000     0.126564920000     0.024785410000     0.099732   
H39      H      0.642175250000     0.126564920000     0.524785410000     0.099732   
H39      H      0.642175250000     0.626564920000     0.024785410000     0.099732   
H39      H      0.642175250000     0.626564920000     0.524785410000     0.099732   
H40      H      0.078170730000     0.157928990000     0.064840020000    -0.00088    
H40      H      0.078170730000     0.157928990000     0.564840020000    -0.00088    
H40      H      0.078170730000     0.657928990000     0.064840020000    -0.00088    
H40      H      0.078170730000     0.657928990000     0.564840020000    -0.00088    
H40      H      0.578170730000     0.157928990000     0.064840020000    -0.00088    
H40      H      0.578170730000     0.157928990000     0.564840020000    -0.00088    
H40      H      0.578170730000     0.657928990000     0.064840020000    -0.00088    
H40      H      0.578170730000     0.657928990000     0.564840020000    -0.00088    
H41      H      0.149445025000     0.174734500000     0.066030735000    -0.102506   
H41      H      0.149445025000     0.174734500000     0.566030735000    -0.102506   
H41      H      0.149445025000     0.674734500000     0.066030735000    -0.102506   
H41      H      0.149445025000     0.674734500000     0.566030735000    -0.102506   
H41      H      0.649445025000     0.174734500000     0.066030735000    -0.102506   
H41      H      0.649445025000     0.174734500000     0.566030735000    -0.102506   
H41      H      0.649445025000     0.674734500000     0.066030735000    -0.102506   
H41      H      0.649445025000     0.674734500000     0.566030735000    -0.102506   
H42      H      0.287541150000     0.211102530000     0.105369965000     0.560305   
H42      H      0.287541150000     0.211102530000     0.605369965000     0.560305   
H42      H      0.287541150000     0.711102530000     0.105369965000     0.560305   
H42      H      0.287541150000     0.711102530000     0.605369965000     0.560305   
H42      H      0.787541150000     0.211102530000     0.105369965000     0.560305   
H42      H      0.787541150000     0.211102530000     0.605369965000     0.560305   
H42      H      0.787541150000     0.711102530000     0.105369965000     0.560305   
H42      H      0.787541150000     0.711102530000     0.605369965000     0.560305   
H43      H      0.212566675000     0.216400300000     0.108354285000     0.138172   
H43      H      0.212566675000     0.216400300000     0.608354285000     0.138172   
H43      H      0.212566675000     0.716400300000     0.108354285000     0.138172   
H43      H      0.212566675000     0.716400300000     0.608354285000     0.138172   
H43      H      0.712566675000     0.216400300000     0.108354285000     0.138172   
H43      H      0.712566675000     0.216400300000     0.608354285000     0.138172   
H43      H      0.712566675000     0.716400300000     0.108354285000     0.138172   
H43      H      0.712566675000     0.716400300000     0.608354285000     0.138172   
H44      H      0.254092400000     0.210193870000     0.144603060000     0.153553   
H44      H      0.254092400000     0.210193870000     0.644603060000     0.153553   
H44      H      0.254092400000     0.710193870000     0.144603060000     0.153553   
H44      H      0.254092400000     0.710193870000     0.644603060000     0.153553   
H44      H      0.754092400000     0.210193870000     0.144603060000     0.153553   
H44      H      0.754092400000     0.210193870000     0.644603060000     0.153553   
H44      H      0.754092400000     0.710193870000     0.144603060000     0.153553   
H44      H      0.754092400000     0.710193870000     0.644603060000     0.153553   
H45      H      0.270681085000     0.152480065000     0.118655355000     0.026246   
H45      H      0.270681085000     0.152480065000     0.618655355000     0.026246   
H45      H      0.270681085000     0.652480065000     0.118655355000     0.026246   
H45      H      0.270681085000     0.652480065000     0.618655355000     0.026246   
H45      H      0.770681085000     0.152480065000     0.118655355000     0.026246   
H45      H      0.770681085000     0.152480065000     0.618655355000     0.026246   
H45      H      0.770681085000     0.652480065000     0.118655355000     0.026246   
H45      H      0.770681085000     0.652480065000     0.618655355000     0.026246   
H46      H      0.232938650000     0.159025565000     0.082769030000     0.000673   
H46      H      0.232938650000     0.159025565000     0.582769030000     0.000673   
H46      H      0.232938650000     0.659025565000     0.082769030000     0.000673   
H46      H      0.232938650000     0.659025565000     0.582769030000     0.000673   
H46      H      0.732938650000     0.159025565000     0.082769030000     0.000673   
H46      H      0.732938650000     0.159025565000     0.582769030000     0.000673   
H46      H      0.732938650000     0.659025565000     0.082769030000     0.000673   
H46      H      0.732938650000     0.659025565000     0.582769030000     0.000673   
C47      C      0.025321720000     0.036874300000     0.472125750000     0.067684   
C47      C      0.025321720000     0.036874300000     0.972125750000     0.067684   
C47      C      0.025321720000     0.536874300000     0.472125750000     0.067684   
C47      C      0.025321720000     0.536874300000     0.972125750000     0.067684   
C47      C      0.525321720000     0.036874300000     0.472125750000     0.067684   
C47      C      0.525321720000     0.036874300000     0.972125750000     0.067684   
C47      C      0.525321720000     0.536874300000     0.472125750000     0.067684   
C47      C      0.525321720000     0.536874300000     0.972125750000     0.067684   
C48      C      0.458991825000     0.489665250000     0.331394820000     0.126224   
C48      C      0.458991825000     0.489665250000     0.831394820000     0.126224   
C48      C      0.458991825000     0.989665250000     0.331394820000     0.126224   
C48      C      0.458991825000     0.989665250000     0.831394820000     0.126224   
C48      C      0.958991825000     0.489665250000     0.331394820000     0.126224   
C48      C      0.958991825000     0.489665250000     0.831394820000     0.126224   
C48      C      0.958991825000     0.989665250000     0.331394820000     0.126224   
C48      C      0.958991825000     0.989665250000     0.831394820000     0.126224   
C49      C      0.038061680000     0.026804495000     0.437328875000     0.042539   
C49      C      0.038061680000     0.026804495000     0.937328875000     0.042539   
C49      C      0.038061680000     0.526804495000     0.437328875000     0.042539   
C49      C      0.038061680000     0.526804495000     0.937328875000     0.042539   
C49      C      0.538061680000     0.026804495000     0.437328875000     0.042539   
C49      C      0.538061680000     0.026804495000     0.937328875000     0.042539   
C49      C      0.538061680000     0.526804495000     0.437328875000     0.042539   
C49      C      0.538061680000     0.526804495000     0.937328875000     0.042539   
C50      C      0.444559065000     0.002265690000     0.365029575000    -0.070386   
C50      C      0.444559065000     0.002265690000     0.865029575000    -0.070386   
C50      C      0.444559065000     0.502265690000     0.365029575000    -0.070386   
C50      C      0.444559065000     0.502265690000     0.865029575000    -0.070386   
C50      C      0.944559065000     0.002265690000     0.365029575000    -0.070386   
C50      C      0.944559065000     0.002265690000     0.865029575000    -0.070386   
C50      C      0.944559065000     0.502265690000     0.365029575000    -0.070386   
C50      C      0.944559065000     0.502265690000     0.865029575000    -0.070386   
C51      C      0.495929120000     0.010294380000     0.417688800000    -0.373231   
C51      C      0.495929120000     0.010294380000     0.917688800000    -0.373231   
C51      C      0.495929120000     0.510294380000     0.417688800000    -0.373231   
C51      C      0.495929120000     0.510294380000     0.917688800000    -0.373231   
C51      C      0.995929120000     0.010294380000     0.417688800000    -0.373231   
C51      C      0.995929120000     0.010294380000     0.917688800000    -0.373231   
C51      C      0.995929120000     0.510294380000     0.417688800000    -0.373231   
C51      C      0.995929120000     0.510294380000     0.917688800000    -0.373231   
C52      C      0.487169400000     0.018518925000     0.383858770000     0.313644   
C52      C      0.487169400000     0.018518925000     0.883858770000     0.313644   
C52      C      0.487169400000     0.518518925000     0.383858770000     0.313644   
C52      C      0.487169400000     0.518518925000     0.883858770000     0.313644   
C52      C      0.987169400000     0.018518925000     0.383858770000     0.313644   
C52      C      0.987169400000     0.018518925000     0.883858770000     0.313644   
C52      C      0.987169400000     0.518518925000     0.383858770000     0.313644   
C52      C      0.987169400000     0.518518925000     0.883858770000     0.313644   
C53      C      0.196915000000     0.314327270000     0.445864470000    -0.16682    
C53      C      0.196915000000     0.314327270000     0.945864470000    -0.16682    
C53      C      0.196915000000     0.814327270000     0.445864470000    -0.16682    
C53      C      0.196915000000     0.814327270000     0.945864470000    -0.16682    
C53      C      0.696915000000     0.314327270000     0.445864470000    -0.16682    
C53      C      0.696915000000     0.314327270000     0.945864470000    -0.16682    
C53      C      0.696915000000     0.814327270000     0.445864470000    -0.16682    
C53      C      0.696915000000     0.814327270000     0.945864470000    -0.16682    
C54      C      0.275082300000     0.211271970000     0.344376300000     0.112087   
C54      C      0.275082300000     0.211271970000     0.844376300000     0.112087   
C54      C      0.275082300000     0.711271970000     0.344376300000     0.112087   
C54      C      0.275082300000     0.711271970000     0.844376300000     0.112087   
C54      C      0.775082300000     0.211271970000     0.344376300000     0.112087   
C54      C      0.775082300000     0.211271970000     0.844376300000     0.112087   
C54      C      0.775082300000     0.711271970000     0.344376300000     0.112087   
C54      C      0.775082300000     0.711271970000     0.844376300000     0.112087   
C55      C      0.189620480000     0.291330575000     0.415043500000    -2.06806    
C55      C      0.189620480000     0.291330575000     0.915043500000    -2.06806    
C55      C      0.189620480000     0.791330575000     0.415043500000    -2.06806    
C55      C      0.189620480000     0.791330575000     0.915043500000    -2.06806    
C55      C      0.689620480000     0.291330575000     0.415043500000    -2.06806    
C55      C      0.689620480000     0.291330575000     0.915043500000    -2.06806    
C55      C      0.689620480000     0.791330575000     0.415043500000    -2.06806    
C55      C      0.689620480000     0.791330575000     0.915043500000    -2.06806    
C56      C      0.281936850000     0.231581750000     0.376531780000     4.20631    
C56      C      0.281936850000     0.231581750000     0.876531780000     4.20631    
C56      C      0.281936850000     0.731581750000     0.376531780000     4.20631    
C56      C      0.281936850000     0.731581750000     0.876531780000     4.20631    
C56      C      0.781936850000     0.231581750000     0.376531780000     4.20631    
C56      C      0.781936850000     0.231581750000     0.876531780000     4.20631    
C56      C      0.781936850000     0.731581750000     0.376531780000     4.20631    
C56      C      0.781936850000     0.731581750000     0.876531780000     4.20631    
C57      C      0.236360300000     0.278872370000     0.402045100000     1.39704    
C57      C      0.236360300000     0.278872370000     0.902045100000     1.39704    
C57      C      0.236360300000     0.778872370000     0.402045100000     1.39704    
C57      C      0.236360300000     0.778872370000     0.902045100000     1.39704    
C57      C      0.736360300000     0.278872370000     0.402045100000     1.39704    
C57      C      0.736360300000     0.278872370000     0.902045100000     1.39704    
C57      C      0.736360300000     0.778872370000     0.402045100000     1.39704    
C57      C      0.736360300000     0.778872370000     0.902045100000     1.39704    
C58      C      0.234884770000     0.243538290000     0.388755450000     0.075884   
C58      C      0.234884770000     0.243538290000     0.888755450000     0.075884   
C58      C      0.234884770000     0.743538290000     0.388755450000     0.075884   
C58      C      0.234884770000     0.743538290000     0.888755450000     0.075884   
C58      C      0.734884770000     0.243538290000     0.388755450000     0.075884   
C58      C      0.734884770000     0.243538290000     0.888755450000     0.075884   
C58      C      0.734884770000     0.743538290000     0.388755450000     0.075884   
C58      C      0.734884770000     0.743538290000     0.888755450000     0.075884   
C59      C      0.144598550000     0.291359300000     0.146720665000     1.95397    
C59      C      0.144598550000     0.291359300000     0.646720665000     1.95397    
C59      C      0.144598550000     0.791359300000     0.146720665000     1.95397    
C59      C      0.144598550000     0.791359300000     0.646720665000     1.95397    
C59      C      0.644598550000     0.291359300000     0.146720665000     1.95397    
C59      C      0.644598550000     0.291359300000     0.646720665000     1.95397    
C59      C      0.644598550000     0.791359300000     0.146720665000     1.95397    
C59      C      0.644598550000     0.791359300000     0.646720665000     1.95397    
C60      C      0.176591965000     0.321279350000     0.146662200000     0.074783   
C60      C      0.176591965000     0.321279350000     0.646662200000     0.074783   
C60      C      0.176591965000     0.821279350000     0.146662200000     0.074783   
C60      C      0.176591965000     0.821279350000     0.646662200000     0.074783   
C60      C      0.676591965000     0.321279350000     0.146662200000     0.074783   
C60      C      0.676591965000     0.321279350000     0.646662200000     0.074783   
C60      C      0.676591965000     0.821279350000     0.146662200000     0.074783   
C60      C      0.676591965000     0.821279350000     0.646662200000     0.074783   
C61      C      0.097007950000     0.431736020000     0.132829485000     0.21816    
C61      C      0.097007950000     0.431736020000     0.632829485000     0.21816    
C61      C      0.097007950000     0.931736020000     0.132829485000     0.21816    
C61      C      0.097007950000     0.931736020000     0.632829485000     0.21816    
C61      C      0.597007950000     0.431736020000     0.132829485000     0.21816    
C61      C      0.597007950000     0.431736020000     0.632829485000     0.21816    
C61      C      0.597007950000     0.931736020000     0.132829485000     0.21816    
C61      C      0.597007950000     0.931736020000     0.632829485000     0.21816    
C62      C      0.117415950000     0.405949600000     0.130225210000     10.5535    
C62      C      0.117415950000     0.405949600000     0.630225210000     10.5535    
C62      C      0.117415950000     0.905949600000     0.130225210000     10.5535    
C62      C      0.117415950000     0.905949600000     0.630225210000     10.5535    
C62      C      0.617415950000     0.405949600000     0.130225210000     10.5535    
C62      C      0.617415950000     0.405949600000     0.630225210000     10.5535    
C62      C      0.617415950000     0.905949600000     0.130225210000     10.5535    
C62      C      0.617415950000     0.905949600000     0.630225210000     10.5535    
C63      C      0.139577015000     0.375860500000     0.131586910000    -4.86858    
C63      C      0.139577015000     0.375860500000     0.631586910000    -4.86858    
C63      C      0.139577015000     0.875860500000     0.131586910000    -4.86858    
C63      C      0.139577015000     0.875860500000     0.631586910000    -4.86858    
C63      C      0.639577015000     0.375860500000     0.131586910000    -4.86858    
C63      C      0.639577015000     0.375860500000     0.631586910000    -4.86858    
C63      C      0.639577015000     0.875860500000     0.131586910000    -4.86858    
C63      C      0.639577015000     0.875860500000     0.631586910000    -4.86858    
C64      C      0.157180950000     0.350425125000     0.136819780000     2.10167    
C64      C      0.157180950000     0.350425125000     0.636819780000     2.10167    
C64      C      0.157180950000     0.850425125000     0.136819780000     2.10167    
C64      C      0.157180950000     0.850425125000     0.636819780000     2.10167    
C64      C      0.657180950000     0.350425125000     0.136819780000     2.10167    
C64      C      0.657180950000     0.350425125000     0.636819780000     2.10167    
C64      C      0.657180950000     0.850425125000     0.136819780000     2.10167    
C64      C      0.657180950000     0.850425125000     0.636819780000     2.10167    
C65      C      0.101360815000     0.492249280000     0.147741800000     0.324703   
C65      C      0.101360815000     0.492249280000     0.647741800000     0.324703   
C65      C      0.101360815000     0.992249280000     0.147741800000     0.324703   
C65      C      0.101360815000     0.992249280000     0.647741800000     0.324703   
C65      C      0.601360815000     0.492249280000     0.147741800000     0.324703   
C65      C      0.601360815000     0.492249280000     0.647741800000     0.324703   
C65      C      0.601360815000     0.992249280000     0.147741800000     0.324703   
C65      C      0.601360815000     0.992249280000     0.647741800000     0.324703   
C66      C      0.071786345000     0.461811400000     0.138709680000    -1.30149    
C66      C      0.071786345000     0.461811400000     0.638709680000    -1.30149    
C66      C      0.071786345000     0.961811400000     0.138709680000    -1.30149    
C66      C      0.071786345000     0.961811400000     0.638709680000    -1.30149    
C66      C      0.571786345000     0.461811400000     0.138709680000    -1.30149    
C66      C      0.571786345000     0.461811400000     0.638709680000    -1.30149    
C66      C      0.571786345000     0.961811400000     0.138709680000    -1.30149    
C66      C      0.571786345000     0.961811400000     0.638709680000    -1.30149    
C67      C      0.014255355000     0.465079750000     0.142109300000     0.421033   
C67      C      0.014255355000     0.465079750000     0.642109300000     0.421033   
C67      C      0.014255355000     0.965079750000     0.142109300000     0.421033   
C67      C      0.014255355000     0.965079750000     0.642109300000     0.421033   
C67      C      0.514255355000     0.465079750000     0.142109300000     0.421033   
C67      C      0.514255355000     0.465079750000     0.642109300000     0.421033   
C67      C      0.514255355000     0.965079750000     0.142109300000     0.421033   
C67      C      0.514255355000     0.965079750000     0.642109300000     0.421033   
C68      C      0.231697380000     0.317367820000     0.155592440000     0.014019   
C68      C      0.231697380000     0.317367820000     0.655592440000     0.014019   
C68      C      0.231697380000     0.817367820000     0.155592440000     0.014019   
C68      C      0.231697380000     0.817367820000     0.655592440000     0.014019   
C68      C      0.731697380000     0.317367820000     0.155592440000     0.014019   
C68      C      0.731697380000     0.317367820000     0.655592440000     0.014019   
C68      C      0.731697380000     0.817367820000     0.155592440000     0.014019   
C68      C      0.731697380000     0.817367820000     0.655592440000     0.014019   
C69      C      0.390236650000     0.084135135000     0.187740685000     0.281287   
C69      C      0.390236650000     0.084135135000     0.687740685000     0.281287   
C69      C      0.390236650000     0.584135135000     0.187740685000     0.281287   
C69      C      0.390236650000     0.584135135000     0.687740685000     0.281287   
C69      C      0.890236650000     0.084135135000     0.187740685000     0.281287   
C69      C      0.890236650000     0.084135135000     0.687740685000     0.281287   
C69      C      0.890236650000     0.584135135000     0.187740685000     0.281287   
C69      C      0.890236650000     0.584135135000     0.687740685000     0.281287   
C70      C      0.344026100000     0.202148100000     0.119266980000     0.066084   
C70      C      0.344026100000     0.202148100000     0.619266980000     0.066084   
C70      C      0.344026100000     0.702148100000     0.119266980000     0.066084   
C70      C      0.344026100000     0.702148100000     0.619266980000     0.066084   
C70      C      0.844026100000     0.202148100000     0.119266980000     0.066084   
C70      C      0.844026100000     0.202148100000     0.619266980000     0.066084   
C70      C      0.844026100000     0.702148100000     0.119266980000     0.066084   
C70      C      0.844026100000     0.702148100000     0.619266980000     0.066084   
C71      C      0.332871900000     0.126238690000     0.100510935000    -0.033366   
C71      C      0.332871900000     0.126238690000     0.600510935000    -0.033366   
C71      C      0.332871900000     0.626238690000     0.100510935000    -0.033366   
C71      C      0.332871900000     0.626238690000     0.600510935000    -0.033366   
C71      C      0.832871900000     0.126238690000     0.100510935000    -0.033366   
C71      C      0.832871900000     0.126238690000     0.600510935000    -0.033366   
C71      C      0.832871900000     0.626238690000     0.100510935000    -0.033366   
C71      C      0.832871900000     0.626238690000     0.600510935000    -0.033366   
C72      C      0.295694830000     0.100347685000     0.167929115000    -0.168553   
C72      C      0.295694830000     0.100347685000     0.667929115000    -0.168553   
C72      C      0.295694830000     0.600347685000     0.167929115000    -0.168553   
C72      C      0.295694830000     0.600347685000     0.667929115000    -0.168553   
C72      C      0.795694830000     0.100347685000     0.167929115000    -0.168553   
C72      C      0.795694830000     0.100347685000     0.667929115000    -0.168553   
C72      C      0.795694830000     0.600347685000     0.167929115000    -0.168553   
C72      C      0.795694830000     0.600347685000     0.667929115000    -0.168553   
C73      C      0.359089850000     0.104155115000     0.167812930000     0.199233   
C73      C      0.359089850000     0.104155115000     0.667812930000     0.199233   
C73      C      0.359089850000     0.604155115000     0.167812930000     0.199233   
C73      C      0.359089850000     0.604155115000     0.667812930000     0.199233   
C73      C      0.859089850000     0.104155115000     0.167812930000     0.199233   
C73      C      0.859089850000     0.104155115000     0.667812930000     0.199233   
C73      C      0.859089850000     0.604155115000     0.167812930000     0.199233   
C73      C      0.859089850000     0.604155115000     0.667812930000     0.199233   
C74      C      0.390634420000     0.126061260000     0.151493430000     0.807026   
C74      C      0.390634420000     0.126061260000     0.651493430000     0.807026   
C74      C      0.390634420000     0.626061260000     0.151493430000     0.807026   
C74      C      0.390634420000     0.626061260000     0.651493430000     0.807026   
C74      C      0.890634420000     0.126061260000     0.151493430000     0.807026   
C74      C      0.890634420000     0.126061260000     0.651493430000     0.807026   
C74      C      0.890634420000     0.626061260000     0.151493430000     0.807026   
C74      C      0.890634420000     0.626061260000     0.651493430000     0.807026   
C75      C      0.376998485000     0.179417385000     0.134864970000     0.395629   
C75      C      0.376998485000     0.179417385000     0.634864970000     0.395629   
C75      C      0.376998485000     0.679417385000     0.134864970000     0.395629   
C75      C      0.376998485000     0.679417385000     0.634864970000     0.395629   
C75      C      0.876998485000     0.179417385000     0.134864970000     0.395629   
C75      C      0.876998485000     0.179417385000     0.634864970000     0.395629   
C75      C      0.876998485000     0.679417385000     0.134864970000     0.395629   
C75      C      0.876998485000     0.679417385000     0.634864970000     0.395629   
C76      C      0.365727100000     0.145887750000     0.128943850000    -0.970326   
C76      C      0.365727100000     0.145887750000     0.628943850000    -0.970326   
C76      C      0.365727100000     0.645887750000     0.128943850000    -0.970326   
C76      C      0.365727100000     0.645887750000     0.628943850000    -0.970326   
C76      C      0.865727100000     0.145887750000     0.128943850000    -0.970326   
C76      C      0.865727100000     0.145887750000     0.628943850000    -0.970326   
C76      C      0.865727100000     0.645887750000     0.128943850000    -0.970326   
C76      C      0.865727100000     0.645887750000     0.628943850000    -0.970326   
C77      C      0.184819265000     0.347688250000     0.455548825000     0.179883   
C77      C      0.184819265000     0.347688250000     0.955548825000     0.179883   
C77      C      0.184819265000     0.847688250000     0.455548825000     0.179883   
C77      C      0.184819265000     0.847688250000     0.955548825000     0.179883   
C77      C      0.684819265000     0.347688250000     0.455548825000     0.179883   
C77      C      0.684819265000     0.347688250000     0.955548825000     0.179883   
C77      C      0.684819265000     0.847688250000     0.455548825000     0.179883   
C77      C      0.684819265000     0.847688250000     0.955548825000     0.179883   
C78      C      0.072870045000     0.423393850000     0.385026150000    -0.048993   
C78      C      0.072870045000     0.423393850000     0.885026150000    -0.048993   
C78      C      0.072870045000     0.923393850000     0.385026150000    -0.048993   
C78      C      0.072870045000     0.923393850000     0.885026150000    -0.048993   
C78      C      0.572870045000     0.423393850000     0.385026150000    -0.048993   
C78      C      0.572870045000     0.423393850000     0.885026150000    -0.048993   
C78      C      0.572870045000     0.923393850000     0.385026150000    -0.048993   
C78      C      0.572870045000     0.923393850000     0.885026150000    -0.048993   
C79      C      0.051197285000     0.444032100000     0.362065900000     0.128067   
C79      C      0.051197285000     0.444032100000     0.862065900000     0.128067   
C79      C      0.051197285000     0.944032100000     0.362065900000     0.128067   
C79      C      0.051197285000     0.944032100000     0.862065900000     0.128067   
C79      C      0.551197285000     0.444032100000     0.362065900000     0.128067   
C79      C      0.551197285000     0.444032100000     0.862065900000     0.128067   
C79      C      0.551197285000     0.944032100000     0.362065900000     0.128067   
C79      C      0.551197285000     0.944032100000     0.862065900000     0.128067   
C80      C      0.125193610000     0.384892650000     0.420953065000     0.185639   
C80      C      0.125193610000     0.384892650000     0.920953065000     0.185639   
C80      C      0.125193610000     0.884892650000     0.420953065000     0.185639   
C80      C      0.125193610000     0.884892650000     0.920953065000     0.185639   
C80      C      0.625193610000     0.384892650000     0.420953065000     0.185639   
C80      C      0.625193610000     0.384892650000     0.920953065000     0.185639   
C80      C      0.625193610000     0.884892650000     0.420953065000     0.185639   
C80      C      0.625193610000     0.884892650000     0.920953065000     0.185639   
C81      C      0.095408460000     0.405640350000     0.402293000000     0.264758   
C81      C      0.095408460000     0.405640350000     0.902293000000     0.264758   
C81      C      0.095408460000     0.905640350000     0.402293000000     0.264758   
C81      C      0.095408460000     0.905640350000     0.902293000000     0.264758   
C81      C      0.595408460000     0.405640350000     0.402293000000     0.264758   
C81      C      0.595408460000     0.405640350000     0.902293000000     0.264758   
C81      C      0.595408460000     0.905640350000     0.402293000000     0.264758   
C81      C      0.595408460000     0.905640350000     0.902293000000     0.264758   
C82      C      0.152171015000     0.367554425000     0.436480700000     0.166928   
C82      C      0.152171015000     0.367554425000     0.936480700000     0.166928   
C82      C      0.152171015000     0.867554425000     0.436480700000     0.166928   
C82      C      0.152171015000     0.867554425000     0.936480700000     0.166928   
C82      C      0.652171015000     0.367554425000     0.436480700000     0.166928   
C82      C      0.652171015000     0.367554425000     0.936480700000     0.166928   
C82      C      0.652171015000     0.867554425000     0.436480700000     0.166928   
C82      C      0.652171015000     0.867554425000     0.936480700000     0.166928   
C83      C      0.069017715000     0.066981190000     0.115563205000     0.030731   
C83      C      0.069017715000     0.066981190000     0.615563205000     0.030731   
C83      C      0.069017715000     0.566981190000     0.115563205000     0.030731   
C83      C      0.069017715000     0.566981190000     0.615563205000     0.030731   
C83      C      0.569017715000     0.066981190000     0.115563205000     0.030731   
C83      C      0.569017715000     0.066981190000     0.615563205000     0.030731   
C83      C      0.569017715000     0.566981190000     0.115563205000     0.030731   
C83      C      0.569017715000     0.566981190000     0.615563205000     0.030731   
C84      C      0.042341275000     0.494531425000     0.163550700000    -0.086217   
C84      C      0.042341275000     0.494531425000     0.663550700000    -0.086217   
C84      C      0.042341275000     0.994531425000     0.163550700000    -0.086217   
C84      C      0.042341275000     0.994531425000     0.663550700000    -0.086217   
C84      C      0.542341275000     0.494531425000     0.163550700000    -0.086217   
C84      C      0.542341275000     0.494531425000     0.663550700000    -0.086217   
C84      C      0.542341275000     0.994531425000     0.163550700000    -0.086217   
C84      C      0.542341275000     0.994531425000     0.663550700000    -0.086217   
C85      C      0.008746225000     0.005934100000     0.187724400000    -0.056686   
C85      C      0.008746225000     0.005934100000     0.687724400000    -0.056686   
C85      C      0.008746225000     0.505934100000     0.187724400000    -0.056686   
C85      C      0.008746225000     0.505934100000     0.687724400000    -0.056686   
C85      C      0.508746225000     0.005934100000     0.187724400000    -0.056686   
C85      C      0.508746225000     0.005934100000     0.687724400000    -0.056686   
C85      C      0.508746225000     0.505934100000     0.187724400000    -0.056686   
C85      C      0.508746225000     0.505934100000     0.687724400000    -0.056686   
C86      C      0.072083585000     0.018260305000     0.145004975000     0.082334   
C86      C      0.072083585000     0.018260305000     0.645004975000     0.082334   
C86      C      0.072083585000     0.518260305000     0.145004975000     0.082334   
C86      C      0.072083585000     0.518260305000     0.645004975000     0.082334   
C86      C      0.572083585000     0.018260305000     0.145004975000     0.082334   
C86      C      0.572083585000     0.018260305000     0.645004975000     0.082334   
C86      C      0.572083585000     0.518260305000     0.145004975000     0.082334   
C86      C      0.572083585000     0.518260305000     0.645004975000     0.082334   
C87      C      0.041332295000     0.037784545000     0.127993790000    -0.0354     
C87      C      0.041332295000     0.037784545000     0.627993790000    -0.0354     
C87      C      0.041332295000     0.537784545000     0.127993790000    -0.0354     
C87      C      0.041332295000     0.537784545000     0.627993790000    -0.0354     
C87      C      0.541332295000     0.037784545000     0.127993790000    -0.0354     
C87      C      0.541332295000     0.037784545000     0.627993790000    -0.0354     
C87      C      0.541332295000     0.537784545000     0.127993790000    -0.0354     
C87      C      0.541332295000     0.537784545000     0.627993790000    -0.0354     
C88      C      0.483217625000     0.483235800000     0.208286165000    -0.041466   
C88      C      0.483217625000     0.483235800000     0.708286165000    -0.041466   
C88      C      0.483217625000     0.983235800000     0.208286165000    -0.041466   
C88      C      0.483217625000     0.983235800000     0.708286165000    -0.041466   
C88      C      0.983217625000     0.483235800000     0.208286165000    -0.041466   
C88      C      0.983217625000     0.483235800000     0.708286165000    -0.041466   
C88      C      0.983217625000     0.983235800000     0.208286165000    -0.041466   
C88      C      0.983217625000     0.983235800000     0.708286165000    -0.041466   
C89      C      0.479475915000     0.028536615000     0.119191960000    -0.325961   
C89      C      0.479475915000     0.028536615000     0.619191960000    -0.325961   
C89      C      0.479475915000     0.528536615000     0.119191960000    -0.325961   
C89      C      0.479475915000     0.528536615000     0.619191960000    -0.325961   
C89      C      0.979475915000     0.028536615000     0.119191960000    -0.325961   
C89      C      0.979475915000     0.028536615000     0.619191960000    -0.325961   
C89      C      0.979475915000     0.528536615000     0.119191960000    -0.325961   
C89      C      0.979475915000     0.528536615000     0.619191960000    -0.325961   
C90      C      0.468853680000     0.374735775000     0.196152570000     0.081797   
C90      C      0.468853680000     0.374735775000     0.696152570000     0.081797   
C90      C      0.468853680000     0.874735775000     0.196152570000     0.081797   
C90      C      0.468853680000     0.874735775000     0.696152570000     0.081797   
C90      C      0.968853680000     0.374735775000     0.196152570000     0.081797   
C90      C      0.968853680000     0.374735775000     0.696152570000     0.081797   
C90      C      0.968853680000     0.874735775000     0.196152570000     0.081797   
C90      C      0.968853680000     0.874735775000     0.696152570000     0.081797   
C91      C      0.275285125000     0.391928850000     0.115450660000     0.174153   
C91      C      0.275285125000     0.391928850000     0.615450660000     0.174153   
C91      C      0.275285125000     0.891928850000     0.115450660000     0.174153   
C91      C      0.275285125000     0.891928850000     0.615450660000     0.174153   
C91      C      0.775285125000     0.391928850000     0.115450660000     0.174153   
C91      C      0.775285125000     0.391928850000     0.615450660000     0.174153   
C91      C      0.775285125000     0.891928850000     0.115450660000     0.174153   
C91      C      0.775285125000     0.891928850000     0.615450660000     0.174153   
C92      C      0.395698600000     0.408124030000     0.176719635000     0.289235   
C92      C      0.395698600000     0.408124030000     0.676719635000     0.289235   
C92      C      0.395698600000     0.908124030000     0.176719635000     0.289235   
C92      C      0.395698600000     0.908124030000     0.676719635000     0.289235   
C92      C      0.895698600000     0.408124030000     0.176719635000     0.289235   
C92      C      0.895698600000     0.408124030000     0.676719635000     0.289235   
C92      C      0.895698600000     0.908124030000     0.176719635000     0.289235   
C92      C      0.895698600000     0.908124030000     0.676719635000     0.289235   
C93      C      0.347858875000     0.411105720000     0.158491760000     0.552476   
C93      C      0.347858875000     0.411105720000     0.658491760000     0.552476   
C93      C      0.347858875000     0.911105720000     0.158491760000     0.552476   
C93      C      0.347858875000     0.911105720000     0.658491760000     0.552476   
C93      C      0.847858875000     0.411105720000     0.158491760000     0.552476   
C93      C      0.847858875000     0.411105720000     0.658491760000     0.552476   
C93      C      0.847858875000     0.911105720000     0.158491760000     0.552476   
C93      C      0.847858875000     0.911105720000     0.658491760000     0.552476   
C94      C      0.423409135000     0.378968650000     0.172786875000     0.291113   
C94      C      0.423409135000     0.378968650000     0.672786875000     0.291113   
C94      C      0.423409135000     0.878968650000     0.172786875000     0.291113   
C94      C      0.423409135000     0.878968650000     0.672786875000     0.291113   
C94      C      0.923409135000     0.378968650000     0.172786875000     0.291113   
C94      C      0.923409135000     0.378968650000     0.672786875000     0.291113   
C94      C      0.923409135000     0.878968650000     0.172786875000     0.291113   
C94      C      0.923409135000     0.878968650000     0.672786875000     0.291113   
C95      C      0.327509225000     0.387203800000     0.133006810000     0.669245   
C95      C      0.327509225000     0.387203800000     0.633006810000     0.669245   
C95      C      0.327509225000     0.887203800000     0.133006810000     0.669245   
C95      C      0.327509225000     0.887203800000     0.633006810000     0.669245   
C95      C      0.827509225000     0.387203800000     0.133006810000     0.669245   
C95      C      0.827509225000     0.387203800000     0.633006810000     0.669245   
C95      C      0.827509225000     0.887203800000     0.133006810000     0.669245   
C95      C      0.827509225000     0.887203800000     0.633006810000     0.669245   
C96      C      0.407897000000     0.355044650000     0.145033940000    -0.125721   
C96      C      0.407897000000     0.355044650000     0.645033940000    -0.125721   
C96      C      0.407897000000     0.855044650000     0.145033940000    -0.125721   
C96      C      0.407897000000     0.855044650000     0.645033940000    -0.125721   
C96      C      0.907897000000     0.355044650000     0.145033940000    -0.125721   
C96      C      0.907897000000     0.355044650000     0.645033940000    -0.125721   
C96      C      0.907897000000     0.855044650000     0.145033940000    -0.125721   
C96      C      0.907897000000     0.855044650000     0.645033940000    -0.125721   
C97      C      0.360289250000     0.359743625000     0.124281825000    -0.064479   
C97      C      0.360289250000     0.359743625000     0.624281825000    -0.064479   
C97      C      0.360289250000     0.859743625000     0.124281825000    -0.064479   
C97      C      0.360289250000     0.859743625000     0.624281825000    -0.064479   
C97      C      0.860289250000     0.359743625000     0.124281825000    -0.064479   
C97      C      0.860289250000     0.359743625000     0.624281825000    -0.064479   
C97      C      0.860289250000     0.859743625000     0.124281825000    -0.064479   
C97      C      0.860289250000     0.859743625000     0.624281825000    -0.064479   
C98      C      0.323212000000     0.435032665000     0.184136550000     0.293375   
C98      C      0.323212000000     0.435032665000     0.684136550000     0.293375   
C98      C      0.323212000000     0.935032665000     0.184136550000     0.293375   
C98      C      0.323212000000     0.935032665000     0.684136550000     0.293375   
C98      C      0.823212000000     0.435032665000     0.184136550000     0.293375   
C98      C      0.823212000000     0.435032665000     0.684136550000     0.293375   
C98      C      0.823212000000     0.935032665000     0.184136550000     0.293375   
C98      C      0.823212000000     0.935032665000     0.684136550000     0.293375   
C99      C      0.378091870000     0.431405785000     0.205571385000     0.360477   
C99      C      0.378091870000     0.431405785000     0.705571385000     0.360477   
C99      C      0.378091870000     0.931405785000     0.205571385000     0.360477   
C99      C      0.378091870000     0.931405785000     0.705571385000     0.360477   
C99      C      0.878091870000     0.431405785000     0.205571385000     0.360477   
C99      C      0.878091870000     0.431405785000     0.705571385000     0.360477   
C99      C      0.878091870000     0.931405785000     0.205571385000     0.360477   
C99      C      0.878091870000     0.931405785000     0.705571385000     0.360477   
C100     C      0.443780275000     0.326888800000     0.137109415000    -0.179765   
C100     C      0.443780275000     0.326888800000     0.637109415000    -0.179765   
C100     C      0.443780275000     0.826888800000     0.137109415000    -0.179765   
C100     C      0.443780275000     0.826888800000     0.637109415000    -0.179765   
C100     C      0.943780275000     0.326888800000     0.137109415000    -0.179765   
C100     C      0.943780275000     0.326888800000     0.637109415000    -0.179765   
C100     C      0.943780275000     0.826888800000     0.137109415000    -0.179765   
C100     C      0.943780275000     0.826888800000     0.637109415000    -0.179765   
C101     C      0.347149700000     0.337498070000     0.092968500000     0.251872   
C101     C      0.347149700000     0.337498070000     0.592968500000     0.251872   
C101     C      0.347149700000     0.837498070000     0.092968500000     0.251872   
C101     C      0.347149700000     0.837498070000     0.592968500000     0.251872   
C101     C      0.847149700000     0.337498070000     0.092968500000     0.251872   
C101     C      0.847149700000     0.337498070000     0.592968500000     0.251872   
C101     C      0.847149700000     0.837498070000     0.092968500000     0.251872   
C101     C      0.847149700000     0.837498070000     0.592968500000     0.251872   
C102     C      0.318093420000     0.469089625000     0.171633140000     0.297591   
C102     C      0.318093420000     0.469089625000     0.671633140000     0.297591   
C102     C      0.318093420000     0.969089625000     0.171633140000     0.297591   
C102     C      0.318093420000     0.969089625000     0.671633140000     0.297591   
C102     C      0.818093420000     0.469089625000     0.171633140000     0.297591   
C102     C      0.818093420000     0.469089625000     0.671633140000     0.297591   
C102     C      0.818093420000     0.969089625000     0.171633140000     0.297591   
C102     C      0.818093420000     0.969089625000     0.671633140000     0.297591   
C103     C      0.417818515000     0.463124350000     0.212237925000     0.271881   
C103     C      0.417818515000     0.463124350000     0.712237925000     0.271881   
C103     C      0.417818515000     0.963124350000     0.212237925000     0.271881   
C103     C      0.417818515000     0.963124350000     0.712237925000     0.271881   
C103     C      0.917818515000     0.463124350000     0.212237925000     0.271881   
C103     C      0.917818515000     0.463124350000     0.712237925000     0.271881   
C103     C      0.917818515000     0.963124350000     0.212237925000     0.271881   
C103     C      0.917818515000     0.963124350000     0.712237925000     0.271881   
C104     C      0.267925380000     0.421483785000     0.198542205000    -0.06325    
C104     C      0.267925380000     0.421483785000     0.698542205000    -0.06325    
C104     C      0.267925380000     0.921483785000     0.198542205000    -0.06325    
C104     C      0.267925380000     0.921483785000     0.698542205000    -0.06325    
C104     C      0.767925380000     0.421483785000     0.198542205000    -0.06325    
C104     C      0.767925380000     0.421483785000     0.698542205000    -0.06325    
C104     C      0.767925380000     0.921483785000     0.198542205000    -0.06325    
C104     C      0.767925380000     0.921483785000     0.698542205000    -0.06325    
C105     C      0.369601250000     0.413638620000     0.236523790000    -0.076317   
C105     C      0.369601250000     0.413638620000     0.736523790000    -0.076317   
C105     C      0.369601250000     0.913638620000     0.236523790000    -0.076317   
C105     C      0.369601250000     0.913638620000     0.736523790000    -0.076317   
C105     C      0.869601250000     0.413638620000     0.236523790000    -0.076317   
C105     C      0.869601250000     0.413638620000     0.736523790000    -0.076317   
C105     C      0.869601250000     0.913638620000     0.236523790000    -0.076317   
C105     C      0.869601250000     0.913638620000     0.736523790000    -0.076317   
C106     C      0.395907600000     0.147603125000     0.375306050000     0.073851   
C106     C      0.395907600000     0.147603125000     0.875306050000     0.073851   
C106     C      0.395907600000     0.647603125000     0.375306050000     0.073851   
C106     C      0.395907600000     0.647603125000     0.875306050000     0.073851   
C106     C      0.895907600000     0.147603125000     0.375306050000     0.073851   
C106     C      0.895907600000     0.147603125000     0.875306050000     0.073851   
C106     C      0.895907600000     0.647603125000     0.375306050000     0.073851   
C106     C      0.895907600000     0.647603125000     0.875306050000     0.073851   
C107     C      0.383634450000     0.115268410000     0.378448800000     0.08282    
C107     C      0.383634450000     0.115268410000     0.878448800000     0.08282    
C107     C      0.383634450000     0.615268410000     0.378448800000     0.08282    
C107     C      0.383634450000     0.615268410000     0.878448800000     0.08282    
C107     C      0.883634450000     0.115268410000     0.378448800000     0.08282    
C107     C      0.883634450000     0.115268410000     0.878448800000     0.08282    
C107     C      0.883634450000     0.615268410000     0.378448800000     0.08282    
C107     C      0.883634450000     0.615268410000     0.878448800000     0.08282    
C108     C      0.360403400000     0.170517050000     0.393059400000    -0.142829   
C108     C      0.360403400000     0.170517050000     0.893059400000    -0.142829   
C108     C      0.360403400000     0.670517050000     0.393059400000    -0.142829   
C108     C      0.360403400000     0.670517050000     0.893059400000    -0.142829   
C108     C      0.860403400000     0.170517050000     0.393059400000    -0.142829   
C108     C      0.860403400000     0.170517050000     0.893059400000    -0.142829   
C108     C      0.860403400000     0.670517050000     0.393059400000    -0.142829   
C108     C      0.860403400000     0.670517050000     0.893059400000    -0.142829   
C109     C      0.330552800000     0.192055970000     0.446555080000     0.102068   
C109     C      0.330552800000     0.192055970000     0.946555080000     0.102068   
C109     C      0.330552800000     0.692055970000     0.446555080000     0.102068   
C109     C      0.330552800000     0.692055970000     0.946555080000     0.102068   
C109     C      0.830552800000     0.192055970000     0.446555080000     0.102068   
C109     C      0.830552800000     0.192055970000     0.946555080000     0.102068   
C109     C      0.830552800000     0.692055970000     0.446555080000     0.102068   
C109     C      0.830552800000     0.692055970000     0.946555080000     0.102068   
C110     C      0.355041250000     0.167605490000     0.425224335000     0.06233    
C110     C      0.355041250000     0.167605490000     0.925224335000     0.06233    
C110     C      0.355041250000     0.667605490000     0.425224335000     0.06233    
C110     C      0.355041250000     0.667605490000     0.925224335000     0.06233    
C110     C      0.855041250000     0.167605490000     0.425224335000     0.06233    
C110     C      0.855041250000     0.167605490000     0.925224335000     0.06233    
C110     C      0.855041250000     0.667605490000     0.425224335000     0.06233    
C110     C      0.855041250000     0.667605490000     0.925224335000     0.06233    
C111     C      0.411155150000     0.088841915000     0.361098300000    -0.168816   
C111     C      0.411155150000     0.088841915000     0.861098300000    -0.168816   
C111     C      0.411155150000     0.588841915000     0.361098300000    -0.168816   
C111     C      0.411155150000     0.588841915000     0.861098300000    -0.168816   
C111     C      0.911155150000     0.088841915000     0.361098300000    -0.168816   
C111     C      0.911155150000     0.088841915000     0.861098300000    -0.168816   
C111     C      0.911155150000     0.588841915000     0.361098300000    -0.168816   
C111     C      0.911155150000     0.588841915000     0.861098300000    -0.168816   
C112     C      0.051092255000     0.111788175000     0.467870325000     0.312283   
C112     C      0.051092255000     0.111788175000     0.967870325000     0.312283   
C112     C      0.051092255000     0.611788175000     0.467870325000     0.312283   
C112     C      0.051092255000     0.611788175000     0.967870325000     0.312283   
C112     C      0.551092255000     0.111788175000     0.467870325000     0.312283   
C112     C      0.551092255000     0.111788175000     0.967870325000     0.312283   
C112     C      0.551092255000     0.611788175000     0.467870325000     0.312283   
C112     C      0.551092255000     0.611788175000     0.967870325000     0.312283   
C113     C      0.165225370000     0.163628010000     0.333136800000     0.309534   
C113     C      0.165225370000     0.163628010000     0.833136800000     0.309534   
C113     C      0.165225370000     0.663628010000     0.333136800000     0.309534   
C113     C      0.165225370000     0.663628010000     0.833136800000     0.309534   
C113     C      0.665225370000     0.163628010000     0.333136800000     0.309534   
C113     C      0.665225370000     0.163628010000     0.833136800000     0.309534   
C113     C      0.665225370000     0.663628010000     0.333136800000     0.309534   
C113     C      0.665225370000     0.663628010000     0.833136800000     0.309534   
C114     C      0.136952830000     0.149685750000     0.359661750000    -0.112651   
C114     C      0.136952830000     0.149685750000     0.859661750000    -0.112651   
C114     C      0.136952830000     0.649685750000     0.359661750000    -0.112651   
C114     C      0.136952830000     0.649685750000     0.859661750000    -0.112651   
C114     C      0.636952830000     0.149685750000     0.359661750000    -0.112651   
C114     C      0.636952830000     0.149685750000     0.859661750000    -0.112651   
C114     C      0.636952830000     0.649685750000     0.359661750000    -0.112651   
C114     C      0.636952830000     0.649685750000     0.859661750000    -0.112651   
C115     C      0.079143175000     0.120668305000     0.439026685000     0.07773    
C115     C      0.079143175000     0.120668305000     0.939026685000     0.07773    
C115     C      0.079143175000     0.620668305000     0.439026685000     0.07773    
C115     C      0.079143175000     0.620668305000     0.939026685000     0.07773    
C115     C      0.579143175000     0.120668305000     0.439026685000     0.07773    
C115     C      0.579143175000     0.120668305000     0.939026685000     0.07773    
C115     C      0.579143175000     0.620668305000     0.439026685000     0.07773    
C115     C      0.579143175000     0.620668305000     0.939026685000     0.07773    
C116     C      0.098537795000     0.128561525000     0.413721300000    -0.309774   
C116     C      0.098537795000     0.128561525000     0.913721300000    -0.309774   
C116     C      0.098537795000     0.628561525000     0.413721300000    -0.309774   
C116     C      0.098537795000     0.628561525000     0.913721300000    -0.309774   
C116     C      0.598537795000     0.128561525000     0.413721300000    -0.309774   
C116     C      0.598537795000     0.128561525000     0.913721300000    -0.309774   
C116     C      0.598537795000     0.628561525000     0.413721300000    -0.309774   
C116     C      0.598537795000     0.628561525000     0.913721300000    -0.309774   
C117     C      0.118261180000     0.139198140000     0.384042100000    -0.404504   
C117     C      0.118261180000     0.139198140000     0.884042100000    -0.404504   
C117     C      0.118261180000     0.639198140000     0.384042100000    -0.404504   
C117     C      0.118261180000     0.639198140000     0.884042100000    -0.404504   
C117     C      0.618261180000     0.139198140000     0.384042100000    -0.404504   
C117     C      0.618261180000     0.139198140000     0.884042100000    -0.404504   
C117     C      0.618261180000     0.639198140000     0.384042100000    -0.404504   
C117     C      0.618261180000     0.639198140000     0.884042100000    -0.404504   
C118     C      0.264350500000     0.248650490000     0.113637850000     0.094348   
C118     C      0.264350500000     0.248650490000     0.613637850000     0.094348   
C118     C      0.264350500000     0.748650490000     0.113637850000     0.094348   
C118     C      0.264350500000     0.748650490000     0.613637850000     0.094348   
C118     C      0.764350500000     0.248650490000     0.113637850000     0.094348   
C118     C      0.764350500000     0.248650490000     0.613637850000     0.094348   
C118     C      0.764350500000     0.748650490000     0.113637850000     0.094348   
C118     C      0.764350500000     0.748650490000     0.613637850000     0.094348   
C119     C      0.251283200000     0.262208880000     0.177172335000    -0.403805   
C119     C      0.251283200000     0.262208880000     0.677172335000    -0.403805   
C119     C      0.251283200000     0.762208880000     0.177172335000    -0.403805   
C119     C      0.251283200000     0.762208880000     0.677172335000    -0.403805   
C119     C      0.751283200000     0.262208880000     0.177172335000    -0.403805   
C119     C      0.751283200000     0.262208880000     0.677172335000    -0.403805   
C119     C      0.751283200000     0.762208880000     0.177172335000    -0.403805   
C119     C      0.751283200000     0.762208880000     0.677172335000    -0.403805   
C120     C      0.258952800000     0.255054600000     0.142943085000     0.738867   
C120     C      0.258952800000     0.255054600000     0.642943085000     0.738867   
C120     C      0.258952800000     0.755054600000     0.142943085000     0.738867   
C120     C      0.258952800000     0.755054600000     0.642943085000     0.738867   
C120     C      0.758952800000     0.255054600000     0.142943085000     0.738867   
C120     C      0.758952800000     0.255054600000     0.642943085000     0.738867   
C120     C      0.758952800000     0.755054600000     0.142943085000     0.738867   
C120     C      0.758952800000     0.755054600000     0.642943085000     0.738867   
C121     C      0.240698300000     0.268027950000     0.205932250000    -2.65885    
C121     C      0.240698300000     0.268027950000     0.705932250000    -2.65885    
C121     C      0.240698300000     0.768027950000     0.205932250000    -2.65885    
C121     C      0.240698300000     0.768027950000     0.705932250000    -2.65885    
C121     C      0.740698300000     0.268027950000     0.205932250000    -2.65885    
C121     C      0.740698300000     0.268027950000     0.705932250000    -2.65885    
C121     C      0.740698300000     0.768027950000     0.205932250000    -2.65885    
C121     C      0.740698300000     0.768027950000     0.705932250000    -2.65885    
C122     C      0.272461920000     0.240655065000     0.078958855000     0.463229   
C122     C      0.272461920000     0.240655065000     0.578958855000     0.463229   
C122     C      0.272461920000     0.740655065000     0.078958855000     0.463229   
C122     C      0.272461920000     0.740655065000     0.578958855000     0.463229   
C122     C      0.772461920000     0.240655065000     0.078958855000     0.463229   
C122     C      0.772461920000     0.240655065000     0.578958855000     0.463229   
C122     C      0.772461920000     0.740655065000     0.078958855000     0.463229   
C122     C      0.772461920000     0.740655065000     0.578958855000     0.463229   
C123     C      0.220439660000     0.274513200000     0.238752885000     1.34365    
C123     C      0.220439660000     0.274513200000     0.738752885000     1.34365    
C123     C      0.220439660000     0.774513200000     0.238752885000     1.34365    
C123     C      0.220439660000     0.774513200000     0.738752885000     1.34365    
C123     C      0.720439660000     0.274513200000     0.238752885000     1.34365    
C123     C      0.720439660000     0.274513200000     0.738752885000     1.34365    
C123     C      0.720439660000     0.774513200000     0.238752885000     1.34365    
C123     C      0.720439660000     0.774513200000     0.738752885000     1.34365    
C124     C      0.023451835000     0.133921220000     0.111633820000    -0.696977   
C124     C      0.023451835000     0.133921220000     0.611633820000    -0.696977   
C124     C      0.023451835000     0.633921220000     0.111633820000    -0.696977   
C124     C      0.023451835000     0.633921220000     0.611633820000    -0.696977   
C124     C      0.523451835000     0.133921220000     0.111633820000    -0.696977   
C124     C      0.523451835000     0.133921220000     0.611633820000    -0.696977   
C124     C      0.523451835000     0.633921220000     0.111633820000    -0.696977   
C124     C      0.523451835000     0.633921220000     0.611633820000    -0.696977   
C125     C      0.121848890000     0.152655675000     0.071901930000    -17.383     
C125     C      0.121848890000     0.152655675000     0.571901930000    -17.383     
C125     C      0.121848890000     0.652655675000     0.071901930000    -17.383     
C125     C      0.121848890000     0.652655675000     0.571901930000    -17.383     
C125     C      0.621848890000     0.152655675000     0.071901930000    -17.383     
C125     C      0.621848890000     0.152655675000     0.571901930000    -17.383     
C125     C      0.621848890000     0.652655675000     0.071901930000    -17.383     
C125     C      0.621848890000     0.652655675000     0.571901930000    -17.383     
C126     C      0.136674435000     0.121187190000     0.050673915000     0.092207   
C126     C      0.136674435000     0.121187190000     0.550673915000     0.092207   
C126     C      0.136674435000     0.621187190000     0.050673915000     0.092207   
C126     C      0.136674435000     0.621187190000     0.550673915000     0.092207   
C126     C      0.636674435000     0.121187190000     0.050673915000     0.092207   
C126     C      0.636674435000     0.121187190000     0.550673915000     0.092207   
C126     C      0.636674435000     0.621187190000     0.050673915000     0.092207   
C126     C      0.636674435000     0.621187190000     0.550673915000     0.092207   
C127     C      0.234530435000     0.165374460000     0.109883780000    -1.62544    
C127     C      0.234530435000     0.165374460000     0.609883780000    -1.62544    
C127     C      0.234530435000     0.665374460000     0.109883780000    -1.62544    
C127     C      0.234530435000     0.665374460000     0.609883780000    -1.62544    
C127     C      0.734530435000     0.165374460000     0.109883780000    -1.62544    
C127     C      0.734530435000     0.165374460000     0.609883780000    -1.62544    
C127     C      0.734530435000     0.665374460000     0.109883780000    -1.62544    
C127     C      0.734530435000     0.665374460000     0.609883780000    -1.62544    
C128     C      0.247854100000     0.203091785000     0.117607795000     0.033215   
C128     C      0.247854100000     0.203091785000     0.617607795000     0.033215   
C128     C      0.247854100000     0.703091785000     0.117607795000     0.033215   
C128     C      0.247854100000     0.703091785000     0.617607795000     0.033215   
C128     C      0.747854100000     0.203091785000     0.117607795000     0.033215   
C128     C      0.747854100000     0.203091785000     0.617607795000     0.033215   
C128     C      0.747854100000     0.703091785000     0.117607795000     0.033215   
C128     C      0.747854100000     0.703091785000     0.617607795000     0.033215   
C129     C      0.126841950000     0.148582980000     0.108447600000     5.17202    
C129     C      0.126841950000     0.148582980000     0.608447600000     5.17202    
C129     C      0.126841950000     0.648582980000     0.108447600000     5.17202    
C129     C      0.126841950000     0.648582980000     0.608447600000     5.17202    
C129     C      0.626841950000     0.148582980000     0.108447600000     5.17202    
C129     C      0.626841950000     0.148582980000     0.608447600000     5.17202    
C129     C      0.626841950000     0.648582980000     0.108447600000     5.17202    
C129     C      0.626841950000     0.648582980000     0.608447600000     5.17202    
C130     C      0.179587260000     0.153649050000     0.125867130000     0.027818   
C130     C      0.179587260000     0.153649050000     0.625867130000     0.027818   
C130     C      0.179587260000     0.653649050000     0.125867130000     0.027818   
C130     C      0.179587260000     0.653649050000     0.625867130000     0.027818   
C130     C      0.679587260000     0.153649050000     0.125867130000     0.027818   
C130     C      0.679587260000     0.153649050000     0.625867130000     0.027818   
C130     C      0.679587260000     0.653649050000     0.125867130000     0.027818   
C130     C      0.679587260000     0.653649050000     0.625867130000     0.027818   
C131     C      0.179769100000     0.149026825000     0.159661860000     0.129633   
C131     C      0.179769100000     0.149026825000     0.659661860000     0.129633   
C131     C      0.179769100000     0.649026825000     0.159661860000     0.129633   
C131     C      0.179769100000     0.649026825000     0.659661860000     0.129633   
C131     C      0.679769100000     0.149026825000     0.159661860000     0.129633   
C131     C      0.679769100000     0.149026825000     0.659661860000     0.129633   
C131     C      0.679769100000     0.649026825000     0.159661860000     0.129633   
C131     C      0.679769100000     0.649026825000     0.659661860000     0.129633   
C132     C      0.078201965000     0.139992650000     0.126349100000     0.701702   
C132     C      0.078201965000     0.139992650000     0.626349100000     0.701702   
C132     C      0.078201965000     0.639992650000     0.126349100000     0.701702   
C132     C      0.078201965000     0.639992650000     0.626349100000     0.701702   
C132     C      0.578201965000     0.139992650000     0.126349100000     0.701702   
C132     C      0.578201965000     0.139992650000     0.626349100000     0.701702   
C132     C      0.578201965000     0.639992650000     0.126349100000     0.701702   
C132     C      0.578201965000     0.639992650000     0.626349100000     0.701702   
C133     C      0.131001950000     0.140556010000     0.176386775000    -0.263004   
C133     C      0.131001950000     0.140556010000     0.676386775000    -0.263004   
C133     C      0.131001950000     0.640556010000     0.176386775000    -0.263004   
C133     C      0.131001950000     0.640556010000     0.676386775000    -0.263004   
C133     C      0.631001950000     0.140556010000     0.176386775000    -0.263004   
C133     C      0.631001950000     0.140556010000     0.676386775000    -0.263004   
C133     C      0.631001950000     0.640556010000     0.176386775000    -0.263004   
C133     C      0.631001950000     0.640556010000     0.676386775000    -0.263004   
C134     C      0.080141485000     0.136217200000     0.159753620000    -0.057304   
C134     C      0.080141485000     0.136217200000     0.659753620000    -0.057304   
C134     C      0.080141485000     0.636217200000     0.159753620000    -0.057304   
C134     C      0.080141485000     0.636217200000     0.659753620000    -0.057304   
C134     C      0.580141485000     0.136217200000     0.159753620000    -0.057304   
C134     C      0.580141485000     0.136217200000     0.659753620000    -0.057304   
C134     C      0.580141485000     0.636217200000     0.159753620000    -0.057304   
C134     C      0.580141485000     0.636217200000     0.659753620000    -0.057304   
C135     C      0.266900420000     0.128130315000     0.179788700000     0.155566   
C135     C      0.266900420000     0.128130315000     0.679788700000     0.155566   
C135     C      0.266900420000     0.628130315000     0.179788700000     0.155566   
C135     C      0.266900420000     0.628130315000     0.679788700000     0.155566   
C135     C      0.766900420000     0.128130315000     0.179788700000     0.155566   
C135     C      0.766900420000     0.128130315000     0.679788700000     0.155566   
C135     C      0.766900420000     0.628130315000     0.179788700000     0.155566   
C135     C      0.766900420000     0.628130315000     0.679788700000     0.155566   
C136     C      0.001746560000     0.104029335000     0.095439615000    -0.051506   
C136     C      0.001746560000     0.104029335000     0.595439615000    -0.051506   
C136     C      0.001746560000     0.604029335000     0.095439615000    -0.051506   
C136     C      0.001746560000     0.604029335000     0.595439615000    -0.051506   
C136     C      0.501746560000     0.104029335000     0.095439615000    -0.051506   
C136     C      0.501746560000     0.104029335000     0.595439615000    -0.051506   
C136     C      0.501746560000     0.604029335000     0.095439615000    -0.051506   
C136     C      0.501746560000     0.604029335000     0.595439615000    -0.051506   
C137     C      0.241454230000     0.176494750000     0.205365150000     0.264314   
C137     C      0.241454230000     0.176494750000     0.705365150000     0.264314   
C137     C      0.241454230000     0.676494750000     0.205365150000     0.264314   
C137     C      0.241454230000     0.676494750000     0.705365150000     0.264314   
C137     C      0.741454230000     0.176494750000     0.205365150000     0.264314   
C137     C      0.741454230000     0.176494750000     0.705365150000     0.264314   
C137     C      0.741454230000     0.676494750000     0.205365150000     0.264314   
C137     C      0.741454230000     0.676494750000     0.705365150000     0.264314   
C138     C      0.480573800000     0.154098825000     0.118403765000     0.620888   
C138     C      0.480573800000     0.154098825000     0.618403765000     0.620888   
C138     C      0.480573800000     0.654098825000     0.118403765000     0.620888   
C138     C      0.480573800000     0.654098825000     0.618403765000     0.620888   
C138     C      0.980573800000     0.154098825000     0.118403765000     0.620888   
C138     C      0.980573800000     0.154098825000     0.618403765000     0.620888   
C138     C      0.980573800000     0.654098825000     0.118403765000     0.620888   
C138     C      0.980573800000     0.654098825000     0.618403765000     0.620888   
C139     C      0.230376615000     0.152603985000     0.178895085000    -0.251597   
C139     C      0.230376615000     0.152603985000     0.678895085000    -0.251597   
C139     C      0.230376615000     0.652603985000     0.178895085000    -0.251597   
C139     C      0.230376615000     0.652603985000     0.678895085000    -0.251597   
C139     C      0.730376615000     0.152603985000     0.178895085000    -0.251597   
C139     C      0.730376615000     0.152603985000     0.678895085000    -0.251597   
C139     C      0.730376615000     0.652603985000     0.178895085000    -0.251597   
C139     C      0.730376615000     0.652603985000     0.678895085000    -0.251597   
C140     C      0.437253030000     0.409234675000     0.386452650000    -0.645939   
C140     C      0.437253030000     0.409234675000     0.886452650000    -0.645939   
C140     C      0.437253030000     0.909234675000     0.386452650000    -0.645939   
C140     C      0.437253030000     0.909234675000     0.886452650000    -0.645939   
C140     C      0.937253030000     0.409234675000     0.386452650000    -0.645939   
C140     C      0.937253030000     0.409234675000     0.886452650000    -0.645939   
C140     C      0.937253030000     0.909234675000     0.386452650000    -0.645939   
C140     C      0.937253030000     0.909234675000     0.886452650000    -0.645939   
C141     C      0.485547600000     0.422056700000     0.369695050000    -0.234744   
C141     C      0.485547600000     0.422056700000     0.869695050000    -0.234744   
C141     C      0.485547600000     0.922056700000     0.369695050000    -0.234744   
C141     C      0.485547600000     0.922056700000     0.869695050000    -0.234744   
C141     C      0.985547600000     0.422056700000     0.369695050000    -0.234744   
C141     C      0.985547600000     0.422056700000     0.869695050000    -0.234744   
C141     C      0.985547600000     0.922056700000     0.369695050000    -0.234744   
C141     C      0.985547600000     0.922056700000     0.869695050000    -0.234744   
C142     C      0.265052750000     0.346369980000     0.438967600000    -0.151242   
C142     C      0.265052750000     0.346369980000     0.938967600000    -0.151242   
C142     C      0.265052750000     0.846369980000     0.438967600000    -0.151242   
C142     C      0.265052750000     0.846369980000     0.938967600000    -0.151242   
C142     C      0.765052750000     0.346369980000     0.438967600000    -0.151242   
C142     C      0.765052750000     0.346369980000     0.938967600000    -0.151242   
C142     C      0.765052750000     0.846369980000     0.438967600000    -0.151242   
C142     C      0.765052750000     0.846369980000     0.938967600000    -0.151242   
C143     C      0.309072675000     0.362246850000     0.421078475000    -0.004712   
C143     C      0.309072675000     0.362246850000     0.921078475000    -0.004712   
C143     C      0.309072675000     0.862246850000     0.421078475000    -0.004712   
C143     C      0.309072675000     0.862246850000     0.921078475000    -0.004712   
C143     C      0.809072675000     0.362246850000     0.421078475000    -0.004712   
C143     C      0.809072675000     0.362246850000     0.921078475000    -0.004712   
C143     C      0.809072675000     0.862246850000     0.421078475000    -0.004712   
C143     C      0.809072675000     0.862246850000     0.921078475000    -0.004712   
C144     C      0.396022765000     0.395369085000     0.397585000000    -0.207797   
C144     C      0.396022765000     0.395369085000     0.897585000000    -0.207797   
C144     C      0.396022765000     0.895369085000     0.397585000000    -0.207797   
C144     C      0.396022765000     0.895369085000     0.897585000000    -0.207797   
C144     C      0.896022765000     0.395369085000     0.397585000000    -0.207797   
C144     C      0.896022765000     0.395369085000     0.897585000000    -0.207797   
C144     C      0.896022765000     0.895369085000     0.397585000000    -0.207797   
C144     C      0.896022765000     0.895369085000     0.897585000000    -0.207797   
C145     C      0.348440380000     0.377412550000     0.409465880000    -0.001425   
C145     C      0.348440380000     0.377412550000     0.909465880000    -0.001425   
C145     C      0.348440380000     0.877412550000     0.409465880000    -0.001425   
C145     C      0.348440380000     0.877412550000     0.909465880000    -0.001425   
C145     C      0.848440380000     0.377412550000     0.409465880000    -0.001425   
C145     C      0.848440380000     0.377412550000     0.909465880000    -0.001425   
C145     C      0.848440380000     0.877412550000     0.409465880000    -0.001425   
C145     C      0.848440380000     0.877412550000     0.909465880000    -0.001425   
S146     S      0.465464000000     0.432917700000     0.153187550000     0.053002   
S146     S      0.465464000000     0.432917700000     0.653187550000     0.053002   
S146     S      0.465464000000     0.932917700000     0.153187550000     0.053002   
S146     S      0.465464000000     0.932917700000     0.653187550000     0.053002   
S146     S      0.965464000000     0.432917700000     0.153187550000     0.053002   
S146     S      0.965464000000     0.432917700000     0.653187550000     0.053002   
S146     S      0.965464000000     0.932917700000     0.153187550000     0.053002   
S146     S      0.965464000000     0.932917700000     0.653187550000     0.053002   
S147     S      0.457580900000     0.163602665000     0.356777875000     0.625846   
S147     S      0.457580900000     0.163602665000     0.856777875000     0.625846   
S147     S      0.457580900000     0.663602665000     0.356777875000     0.625846   
S147     S      0.457580900000     0.663602665000     0.856777875000     0.625846   
S147     S      0.957580900000     0.163602665000     0.356777875000     0.625846   
S147     S      0.957580900000     0.163602665000     0.856777875000     0.625846   
S147     S      0.957580900000     0.663602665000     0.356777875000     0.625846   
S147     S      0.957580900000     0.663602665000     0.856777875000     0.625846   
S148     S      0.324440030000     0.198680820000     0.371407350000    -0.634308   
S148     S      0.324440030000     0.198680820000     0.871407350000    -0.634308   
S148     S      0.324440030000     0.698680820000     0.371407350000    -0.634308   
S148     S      0.324440030000     0.698680820000     0.871407350000    -0.634308   
S148     S      0.824440030000     0.198680820000     0.371407350000    -0.634308   
S148     S      0.824440030000     0.198680820000     0.871407350000    -0.634308   
S148     S      0.824440030000     0.698680820000     0.371407350000    -0.634308   
S148     S      0.824440030000     0.698680820000     0.871407350000    -0.634308   
Br149    Br     0.450425150000     0.472632020000     0.432338250000    -0.111756   
Br149    Br     0.450425150000     0.472632020000     0.932338250000    -0.111756   
Br149    Br     0.450425150000     0.972632020000     0.432338250000    -0.111756   
Br149    Br     0.450425150000     0.972632020000     0.932338250000    -0.111756   
Br149    Br     0.950425150000     0.472632020000     0.432338250000    -0.111756   
Br149    Br     0.950425150000     0.472632020000     0.932338250000    -0.111756   
Br149    Br     0.950425150000     0.972632020000     0.432338250000    -0.111756   
Br149    Br     0.950425150000     0.972632020000     0.932338250000    -0.111756   
Br150    Br     0.014837860000     0.061958185000     0.372022865000    -0.091056   
Br150    Br     0.014837860000     0.061958185000     0.872022865000    -0.091056   
Br150    Br     0.014837860000     0.561958185000     0.372022865000    -0.091056   
Br150    Br     0.014837860000     0.561958185000     0.872022865000    -0.091056   
Br150    Br     0.514837860000     0.061958185000     0.372022865000    -0.091056   
Br150    Br     0.514837860000     0.061958185000     0.872022865000    -0.091056   
Br150    Br     0.514837860000     0.561958185000     0.372022865000    -0.091056   
Br150    Br     0.514837860000     0.561958185000     0.872022865000    -0.091056   
Br151    Br     0.304462000000     0.308257950000     0.396998200000    -0.119544   
Br151    Br     0.304462000000     0.308257950000     0.896998200000    -0.119544   
Br151    Br     0.304462000000     0.808257950000     0.396998200000    -0.119544   
Br151    Br     0.304462000000     0.808257950000     0.896998200000    -0.119544   
Br151    Br     0.804462000000     0.308257950000     0.396998200000    -0.119544   
Br151    Br     0.804462000000     0.308257950000     0.896998200000    -0.119544   
Br151    Br     0.804462000000     0.808257950000     0.396998200000    -0.119544   
Br151    Br     0.804462000000     0.808257950000     0.896998200000    -0.119544   
Br152    Br     0.178519740000     0.211149260000     0.403440350000    -0.048936   
Br152    Br     0.178519740000     0.211149260000     0.903440350000    -0.048936   
Br152    Br     0.178519740000     0.711149260000     0.403440350000    -0.048936   
Br152    Br     0.178519740000     0.711149260000     0.903440350000    -0.048936   
Br152    Br     0.678519740000     0.211149260000     0.403440350000    -0.048936   
Br152    Br     0.678519740000     0.211149260000     0.903440350000    -0.048936   
Br152    Br     0.678519740000     0.711149260000     0.403440350000    -0.048936   
Br152    Br     0.678519740000     0.711149260000     0.903440350000    -0.048936   
N153     N      0.094379665000     0.033415040000     0.424553200000    -0.081166   
N153     N      0.094379665000     0.033415040000     0.924553200000    -0.081166   
N153     N      0.094379665000     0.533415040000     0.424553200000    -0.081166   
N153     N      0.094379665000     0.533415040000     0.924553200000    -0.081166   
N153     N      0.594379665000     0.033415040000     0.424553200000    -0.081166   
N153     N      0.594379665000     0.033415040000     0.924553200000    -0.081166   
N153     N      0.594379665000     0.533415040000     0.424553200000    -0.081166   
N153     N      0.594379665000     0.533415040000     0.924553200000    -0.081166   
N154     N      0.387394450000     0.010812155000     0.371602835000     2.86725    
N154     N      0.387394450000     0.010812155000     0.871602835000     2.86725    
N154     N      0.387394450000     0.510812155000     0.371602835000     2.86725    
N154     N      0.387394450000     0.510812155000     0.871602835000     2.86725    
N154     N      0.887394450000     0.010812155000     0.371602835000     2.86725    
N154     N      0.887394450000     0.010812155000     0.871602835000     2.86725    
N154     N      0.887394450000     0.510812155000     0.371602835000     2.86725    
N154     N      0.887394450000     0.510812155000     0.871602835000     2.86725    
N155     N      0.134430275000     0.282939900000     0.398452750000    -4.90349    
N155     N      0.134430275000     0.282939900000     0.898452750000    -4.90349    
N155     N      0.134430275000     0.782939900000     0.398452750000    -4.90349    
N155     N      0.134430275000     0.782939900000     0.898452750000    -4.90349    
N155     N      0.634430275000     0.282939900000     0.398452750000    -4.90349    
N155     N      0.634430275000     0.282939900000     0.898452750000    -4.90349    
N155     N      0.634430275000     0.782939900000     0.398452750000    -4.90349    
N155     N      0.634430275000     0.782939900000     0.898452750000    -4.90349    
N156     N      0.326440930000     0.225631100000     0.399419500000    -0.227278   
N156     N      0.326440930000     0.225631100000     0.899419500000    -0.227278   
N156     N      0.326440930000     0.725631100000     0.399419500000    -0.227278   
N156     N      0.326440930000     0.725631100000     0.899419500000    -0.227278   
N156     N      0.826440930000     0.225631100000     0.399419500000    -0.227278   
N156     N      0.826440930000     0.225631100000     0.899419500000    -0.227278   
N156     N      0.826440930000     0.725631100000     0.399419500000    -0.227278   
N156     N      0.826440930000     0.725631100000     0.899419500000    -0.227278   
N157     N      0.062536135000     0.013820350000     0.154699160000    -0.026027   
N157     N      0.062536135000     0.013820350000     0.654699160000    -0.026027   
N157     N      0.062536135000     0.513820350000     0.154699160000    -0.026027   
N157     N      0.062536135000     0.513820350000     0.654699160000    -0.026027   
N157     N      0.562536135000     0.013820350000     0.154699160000    -0.026027   
N157     N      0.562536135000     0.013820350000     0.654699160000    -0.026027   
N157     N      0.562536135000     0.513820350000     0.154699160000    -0.026027   
N157     N      0.562536135000     0.513820350000     0.654699160000    -0.026027   
N158     N      0.008808795000     0.497799515000     0.149237975000    -0.214374   
N158     N      0.008808795000     0.497799515000     0.649237975000    -0.214374   
N158     N      0.008808795000     0.997799515000     0.149237975000    -0.214374   
N158     N      0.008808795000     0.997799515000     0.649237975000    -0.214374   
N158     N      0.508808795000     0.497799515000     0.149237975000    -0.214374   
N158     N      0.508808795000     0.497799515000     0.649237975000    -0.214374   
N158     N      0.508808795000     0.997799515000     0.149237975000    -0.214374   
N158     N      0.508808795000     0.997799515000     0.649237975000    -0.214374   
N159     N      0.233203785000     0.285696950000     0.161640910000    -0.173134   
N159     N      0.233203785000     0.285696950000     0.661640910000    -0.173134   
N159     N      0.233203785000     0.785696950000     0.161640910000    -0.173134   
N159     N      0.233203785000     0.785696950000     0.661640910000    -0.173134   
N159     N      0.733203785000     0.285696950000     0.161640910000    -0.173134   
N159     N      0.733203785000     0.285696950000     0.661640910000    -0.173134   
N159     N      0.733203785000     0.785696950000     0.161640910000    -0.173134   
N159     N      0.733203785000     0.785696950000     0.661640910000    -0.173134   
N160     N      0.179476450000     0.269676100000     0.156179725000    -0.181019   
N160     N      0.179476450000     0.269676100000     0.656179725000    -0.181019   
N160     N      0.179476450000     0.769676100000     0.156179725000    -0.181019   
N160     N      0.179476450000     0.769676100000     0.656179725000    -0.181019   
N160     N      0.679476450000     0.269676100000     0.156179725000    -0.181019   
N160     N      0.679476450000     0.269676100000     0.656179725000    -0.181019   
N160     N      0.679476450000     0.769676100000     0.156179725000    -0.181019   
N160     N      0.679476450000     0.769676100000     0.656179725000    -0.181019   
N161     N      0.446416000000     0.106319090000     0.091503240000    -0.613699   
N161     N      0.446416000000     0.106319090000     0.591503240000    -0.613699   
N161     N      0.446416000000     0.606319090000     0.091503240000    -0.613699   
N161     N      0.446416000000     0.606319090000     0.591503240000    -0.613699   
N161     N      0.946416000000     0.106319090000     0.091503240000    -0.613699   
N161     N      0.946416000000     0.106319090000     0.591503240000    -0.613699   
N161     N      0.946416000000     0.606319090000     0.091503240000    -0.613699   
N161     N      0.946416000000     0.606319090000     0.591503240000    -0.613699   
N162     N      0.288214800000     0.168830125000     0.220256900000    -0.078798   
N162     N      0.288214800000     0.168830125000     0.720256900000    -0.078798   
N162     N      0.288214800000     0.668830125000     0.220256900000    -0.078798   
N162     N      0.288214800000     0.668830125000     0.720256900000    -0.078798   
N162     N      0.788214800000     0.168830125000     0.220256900000    -0.078798   
N162     N      0.788214800000     0.168830125000     0.720256900000    -0.078798   
N162     N      0.788214800000     0.668830125000     0.220256900000    -0.078798   
N162     N      0.788214800000     0.668830125000     0.720256900000    -0.078798   
N163     N      0.432955050000     0.136949940000     0.106258915000    -0.088551   
N163     N      0.432955050000     0.136949940000     0.606258915000    -0.088551   
N163     N      0.432955050000     0.636949940000     0.106258915000    -0.088551   
N163     N      0.432955050000     0.636949940000     0.606258915000    -0.088551   
N163     N      0.932955050000     0.136949940000     0.106258915000    -0.088551   
N163     N      0.932955050000     0.136949940000     0.606258915000    -0.088551   
N163     N      0.932955050000     0.636949940000     0.106258915000    -0.088551   
N163     N      0.932955050000     0.636949940000     0.606258915000    -0.088551   
N164     N      0.301644450000     0.138193300000     0.205499320000    -0.011892   
N164     N      0.301644450000     0.138193300000     0.705499320000    -0.011892   
N164     N      0.301644450000     0.638193300000     0.205499320000    -0.011892   
N164     N      0.301644450000     0.638193300000     0.705499320000    -0.011892   
N164     N      0.801644450000     0.138193300000     0.205499320000    -0.011892   
N164     N      0.801644450000     0.138193300000     0.705499320000    -0.011892   
N164     N      0.801644450000     0.638193300000     0.205499320000    -0.011892   
N164     N      0.801644450000     0.638193300000     0.705499320000    -0.011892   
Cl165    Cl     0.049919385000     0.451745650000     0.151515320000    -0.278894   
Cl165    Cl     0.049919385000     0.451745650000     0.651515320000    -0.278894   
Cl165    Cl     0.049919385000     0.951745650000     0.151515320000    -0.278894   
Cl165    Cl     0.049919385000     0.951745650000     0.651515320000    -0.278894   
Cl165    Cl     0.549919385000     0.451745650000     0.151515320000    -0.278894   
Cl165    Cl     0.549919385000     0.451745650000     0.651515320000    -0.278894   
Cl165    Cl     0.549919385000     0.951745650000     0.151515320000    -0.278894   
Cl165    Cl     0.549919385000     0.951745650000     0.651515320000    -0.278894   
Cl166    Cl     0.001797230000     0.048873620000     0.199761050000    -0.002653   
Cl166    Cl     0.001797230000     0.048873620000     0.699761050000    -0.002653   
Cl166    Cl     0.001797230000     0.548873620000     0.199761050000    -0.002653   
Cl166    Cl     0.001797230000     0.548873620000     0.699761050000    -0.002653   
Cl166    Cl     0.501797230000     0.048873620000     0.199761050000    -0.002653   
Cl166    Cl     0.501797230000     0.048873620000     0.699761050000    -0.002653   
Cl166    Cl     0.501797230000     0.548873620000     0.199761050000    -0.002653   
Cl166    Cl     0.501797230000     0.548873620000     0.699761050000    -0.002653   
Cl167    Cl     0.145945980000     0.025224900000     0.154938815000    -0.192349   
Cl167    Cl     0.145945980000     0.025224900000     0.654938815000    -0.192349   
Cl167    Cl     0.145945980000     0.525224900000     0.154938815000    -0.192349   
Cl167    Cl     0.145945980000     0.525224900000     0.654938815000    -0.192349   
Cl167    Cl     0.645945980000     0.025224900000     0.154938815000    -0.192349   
Cl167    Cl     0.645945980000     0.025224900000     0.654938815000    -0.192349   
Cl167    Cl     0.645945980000     0.525224900000     0.154938815000    -0.192349   
Cl167    Cl     0.645945980000     0.525224900000     0.654938815000    -0.192349   
O168     O      0.473259400000     0.029639140000     0.481496000000    -0.324021   
O168     O      0.473259400000     0.029639140000     0.981496000000    -0.324021   
O168     O      0.473259400000     0.529639140000     0.481496000000    -0.324021   
O168     O      0.473259400000     0.529639140000     0.981496000000    -0.324021   
O168     O      0.973259400000     0.029639140000     0.481496000000    -0.324021   
O168     O      0.973259400000     0.029639140000     0.981496000000    -0.324021   
O168     O      0.973259400000     0.529639140000     0.481496000000    -0.324021   
O168     O      0.973259400000     0.529639140000     0.981496000000    -0.324021   
O169     O      0.011037590000     0.496854275000     0.322206800000    -0.331856   
O169     O      0.011037590000     0.496854275000     0.822206800000    -0.331856   
O169     O      0.011037590000     0.996854275000     0.322206800000    -0.331856   
O169     O      0.011037590000     0.996854275000     0.822206800000    -0.331856   
O169     O      0.511037590000     0.496854275000     0.322206800000    -0.331856   
O169     O      0.511037590000     0.496854275000     0.822206800000    -0.331856   
O169     O      0.511037590000     0.996854275000     0.322206800000    -0.331856   
O169     O      0.511037590000     0.996854275000     0.822206800000    -0.331856   
O170     O      0.064941050000     0.053704855000     0.491874875000    -0.097623   
O170     O      0.064941050000     0.053704855000     0.991874875000    -0.097623   
O170     O      0.064941050000     0.553704855000     0.491874875000    -0.097623   
O170     O      0.064941050000     0.553704855000     0.991874875000    -0.097623   
O170     O      0.564941050000     0.053704855000     0.491874875000    -0.097623   
O170     O      0.564941050000     0.053704855000     0.991874875000    -0.097623   
O170     O      0.564941050000     0.553704855000     0.491874875000    -0.097623   
O170     O      0.564941050000     0.553704855000     0.991874875000    -0.097623   
O171     O      0.419355870000     0.472788570000     0.311827930000    -0.122953   
O171     O      0.419355870000     0.472788570000     0.811827930000    -0.122953   
O171     O      0.419355870000     0.972788570000     0.311827930000    -0.122953   
O171     O      0.419355870000     0.972788570000     0.811827930000    -0.122953   
O171     O      0.919355870000     0.472788570000     0.311827930000    -0.122953   
O171     O      0.919355870000     0.472788570000     0.811827930000    -0.122953   
O171     O      0.919355870000     0.972788570000     0.311827930000    -0.122953   
O171     O      0.919355870000     0.972788570000     0.811827930000    -0.122953   
O172     O      0.135760010000     0.048403035000     0.443603635000    -0.477737   
O172     O      0.135760010000     0.048403035000     0.943603635000    -0.477737   
O172     O      0.135760010000     0.548403035000     0.443603635000    -0.477737   
O172     O      0.135760010000     0.548403035000     0.943603635000    -0.477737   
O172     O      0.635760010000     0.048403035000     0.443603635000    -0.477737   
O172     O      0.635760010000     0.048403035000     0.943603635000    -0.477737   
O172     O      0.635760010000     0.548403035000     0.443603635000    -0.477737   
O172     O      0.635760010000     0.548403035000     0.943603635000    -0.477737   
O173     O      0.107492745000     0.018230315000     0.396241600000    -0.069188   
O173     O      0.107492745000     0.018230315000     0.896241600000    -0.069188   
O173     O      0.107492745000     0.518230315000     0.396241600000    -0.069188   
O173     O      0.107492745000     0.518230315000     0.896241600000    -0.069188   
O173     O      0.607492745000     0.018230315000     0.396241600000    -0.069188   
O173     O      0.607492745000     0.018230315000     0.896241600000    -0.069188   
O173     O      0.607492745000     0.518230315000     0.396241600000    -0.069188   
O173     O      0.607492745000     0.518230315000     0.896241600000    -0.069188   
O174     O      0.356345030000     0.019676125000     0.347947180000    -0.583395   
O174     O      0.356345030000     0.019676125000     0.847947180000    -0.583395   
O174     O      0.356345030000     0.519676125000     0.347947180000    -0.583395   
O174     O      0.356345030000     0.519676125000     0.847947180000    -0.583395   
O174     O      0.856345030000     0.019676125000     0.347947180000    -0.583395   
O174     O      0.856345030000     0.019676125000     0.847947180000    -0.583395   
O174     O      0.856345030000     0.519676125000     0.347947180000    -0.583395   
O174     O      0.856345030000     0.519676125000     0.847947180000    -0.583395   
O175     O      0.371497720000     0.017540940000     0.401801525000     0.494293   
O175     O      0.371497720000     0.017540940000     0.901801525000     0.494293   
O175     O      0.371497720000     0.517540940000     0.401801525000     0.494293   
O175     O      0.371497720000     0.517540940000     0.901801525000     0.494293   
O175     O      0.871497720000     0.017540940000     0.401801525000     0.494293   
O175     O      0.871497720000     0.017540940000     0.901801525000     0.494293   
O175     O      0.871497720000     0.517540940000     0.401801525000     0.494293   
O175     O      0.871497720000     0.517540940000     0.901801525000     0.494293   
O176     O      0.248503120000     0.320610100000     0.458975100000    -0.149824   
O176     O      0.248503120000     0.320610100000     0.958975100000    -0.149824   
O176     O      0.248503120000     0.820610100000     0.458975100000    -0.149824   
O176     O      0.248503120000     0.820610100000     0.958975100000    -0.149824   
O176     O      0.748503120000     0.320610100000     0.458975100000    -0.149824   
O176     O      0.748503120000     0.320610100000     0.958975100000    -0.149824   
O176     O      0.748503120000     0.820610100000     0.458975100000    -0.149824   
O176     O      0.748503120000     0.820610100000     0.958975100000    -0.149824   
O177     O      0.223559170000     0.205173050000     0.331350900000    -0.277663   
O177     O      0.223559170000     0.205173050000     0.831350900000    -0.277663   
O177     O      0.223559170000     0.705173050000     0.331350900000    -0.277663   
O177     O      0.223559170000     0.705173050000     0.831350900000    -0.277663   
O177     O      0.723559170000     0.205173050000     0.331350900000    -0.277663   
O177     O      0.723559170000     0.205173050000     0.831350900000    -0.277663   
O177     O      0.723559170000     0.705173050000     0.331350900000    -0.277663   
O177     O      0.723559170000     0.705173050000     0.831350900000    -0.277663   
O178     O      0.152154075000     0.326399100000     0.459722965000    -0.632035   
O178     O      0.152154075000     0.326399100000     0.959722965000    -0.632035   
O178     O      0.152154075000     0.826399100000     0.459722965000    -0.632035   
O178     O      0.152154075000     0.826399100000     0.959722965000    -0.632035   
O178     O      0.652154075000     0.326399100000     0.459722965000    -0.632035   
O178     O      0.652154075000     0.326399100000     0.959722965000    -0.632035   
O178     O      0.652154075000     0.826399100000     0.459722965000    -0.632035   
O178     O      0.652154075000     0.826399100000     0.959722965000    -0.632035   
O179     O      0.319908250000     0.199384020000     0.330603000000    -0.556068   
O179     O      0.319908250000     0.199384020000     0.830603000000    -0.556068   
O179     O      0.319908250000     0.699384020000     0.330603000000    -0.556068   
O179     O      0.319908250000     0.699384020000     0.830603000000    -0.556068   
O179     O      0.819908250000     0.199384020000     0.330603000000    -0.556068   
O179     O      0.819908250000     0.199384020000     0.830603000000    -0.556068   
O179     O      0.819908250000     0.699384020000     0.330603000000    -0.556068   
O179     O      0.819908250000     0.699384020000     0.830603000000    -0.556068   
O180     O      0.089378850000     0.295682250000     0.410271735000     15.8483    
O180     O      0.089378850000     0.295682250000     0.910271735000     15.8483    
O180     O      0.089378850000     0.795682250000     0.410271735000     15.8483    
O180     O      0.089378850000     0.795682250000     0.910271735000     15.8483    
O180     O      0.589378850000     0.295682250000     0.410271735000     15.8483    
O180     O      0.589378850000     0.295682250000     0.910271735000     15.8483    
O180     O      0.589378850000     0.795682250000     0.410271735000     15.8483    
O180     O      0.589378850000     0.795682250000     0.910271735000     15.8483    
O181     O      0.131088360000     0.268625050000     0.368173330000    -0.654503   
O181     O      0.131088360000     0.268625050000     0.868173330000    -0.654503   
O181     O      0.131088360000     0.768625050000     0.368173330000    -0.654503   
O181     O      0.131088360000     0.768625050000     0.868173330000    -0.654503   
O181     O      0.631088360000     0.268625050000     0.368173330000    -0.654503   
O181     O      0.631088360000     0.268625050000     0.868173330000    -0.654503   
O181     O      0.631088360000     0.768625050000     0.368173330000    -0.654503   
O181     O      0.631088360000     0.768625050000     0.868173330000    -0.654503   
O182     O      0.344975620000     0.196186125000     0.397952300000    -0.190179   
O182     O      0.344975620000     0.196186125000     0.897952300000    -0.190179   
O182     O      0.344975620000     0.696186125000     0.397952300000    -0.190179   
O182     O      0.344975620000     0.696186125000     0.897952300000    -0.190179   
O182     O      0.844975620000     0.196186125000     0.397952300000    -0.190179   
O182     O      0.844975620000     0.196186125000     0.897952300000    -0.190179   
O182     O      0.844975620000     0.696186125000     0.397952300000    -0.190179   
O182     O      0.844975620000     0.696186125000     0.897952300000    -0.190179   
O183     O      0.338439585000     0.246192335000     0.425980400000    -0.348638   
O183     O      0.338439585000     0.246192335000     0.925980400000    -0.348638   
O183     O      0.338439585000     0.746192335000     0.425980400000    -0.348638   
O183     O      0.338439585000     0.746192335000     0.925980400000    -0.348638   
O183     O      0.838439585000     0.246192335000     0.425980400000    -0.348638   
O183     O      0.838439585000     0.246192335000     0.925980400000    -0.348638   
O183     O      0.838439585000     0.746192335000     0.425980400000    -0.348638   
O183     O      0.838439585000     0.746192335000     0.925980400000    -0.348638   
O184     O      0.233649090000     0.182318120000     0.277693035000    -0.635609   
O184     O      0.233649090000     0.182318120000     0.777693035000    -0.635609   
O184     O      0.233649090000     0.682318120000     0.277693035000    -0.635609   
O184     O      0.233649090000     0.682318120000     0.777693035000    -0.635609   
O184     O      0.733649090000     0.182318120000     0.277693035000    -0.635609   
O184     O      0.733649090000     0.182318120000     0.777693035000    -0.635609   
O184     O      0.733649090000     0.682318120000     0.277693035000    -0.635609   
O184     O      0.733649090000     0.682318120000     0.777693035000    -0.635609   
O185     O      0.495855050000     0.410376670000     0.173159050000    -0.055994   
O185     O      0.495855050000     0.410376670000     0.673159050000    -0.055994   
O185     O      0.495855050000     0.910376670000     0.173159050000    -0.055994   
O185     O      0.495855050000     0.910376670000     0.673159050000    -0.055994   
O185     O      0.995855050000     0.410376670000     0.173159050000    -0.055994   
O185     O      0.995855050000     0.410376670000     0.673159050000    -0.055994   
O185     O      0.995855050000     0.910376670000     0.173159050000    -0.055994   
O185     O      0.995855050000     0.910376670000     0.673159050000    -0.055994   
O186     O      0.419737250000     0.447636750000     0.173760235000    -0.312295   
O186     O      0.419737250000     0.447636750000     0.673760235000    -0.312295   
O186     O      0.419737250000     0.947636750000     0.173760235000    -0.312295   
O186     O      0.419737250000     0.947636750000     0.673760235000    -0.312295   
O186     O      0.919737250000     0.447636750000     0.173760235000    -0.312295   
O186     O      0.919737250000     0.447636750000     0.673760235000    -0.312295   
O186     O      0.919737250000     0.947636750000     0.173760235000    -0.312295   
O186     O      0.919737250000     0.947636750000     0.673760235000    -0.312295   
O187     O      0.436335385000     0.410112750000     0.119066665000    -0.262672   
O187     O      0.436335385000     0.410112750000     0.619066665000    -0.262672   
O187     O      0.436335385000     0.910112750000     0.119066665000    -0.262672   
O187     O      0.436335385000     0.910112750000     0.619066665000    -0.262672   
O187     O      0.936335385000     0.410112750000     0.119066665000    -0.262672   
O187     O      0.936335385000     0.410112750000     0.619066665000    -0.262672   
O187     O      0.936335385000     0.910112750000     0.119066665000    -0.262672   
O187     O      0.936335385000     0.910112750000     0.619066665000    -0.262672   
O188     O      0.440316600000     0.096417315000     0.198361200000    -0.332773   
O188     O      0.440316600000     0.096417315000     0.698361200000    -0.332773   
O188     O      0.440316600000     0.596417315000     0.198361200000    -0.332773   
O188     O      0.440316600000     0.596417315000     0.698361200000    -0.332773   
O188     O      0.940316600000     0.096417315000     0.198361200000    -0.332773   
O188     O      0.940316600000     0.096417315000     0.698361200000    -0.332773   
O188     O      0.940316600000     0.596417315000     0.198361200000    -0.332773   
O188     O      0.940316600000     0.596417315000     0.698361200000    -0.332773   
O189     O      0.283820035000     0.130508525000     0.093285275000    -0.195079   
O189     O      0.283820035000     0.130508525000     0.593285275000    -0.195079   
O189     O      0.283820035000     0.630508525000     0.093285275000    -0.195079   
O189     O      0.283820035000     0.630508525000     0.593285275000    -0.195079   
O189     O      0.783820035000     0.130508525000     0.093285275000    -0.195079   
O189     O      0.783820035000     0.130508525000     0.593285275000    -0.195079   
O189     O      0.783820035000     0.630508525000     0.093285275000    -0.195079   
O189     O      0.783820035000     0.630508525000     0.593285275000    -0.195079   
O190     O      0.267359700000     0.123013975000     0.162094370000    -0.309507   
O190     O      0.267359700000     0.123013975000     0.662094370000    -0.309507   
O190     O      0.267359700000     0.623013975000     0.162094370000    -0.309507   
O190     O      0.267359700000     0.623013975000     0.662094370000    -0.309507   
O190     O      0.767359700000     0.123013975000     0.162094370000    -0.309507   
O190     O      0.767359700000     0.123013975000     0.662094370000    -0.309507   
O190     O      0.767359700000     0.623013975000     0.162094370000    -0.309507   
O190     O      0.767359700000     0.623013975000     0.662094370000    -0.309507   
O191     O      0.368864800000     0.054632625000     0.192923560000    -0.278508   
O191     O      0.368864800000     0.054632625000     0.692923560000    -0.278508   
O191     O      0.368864800000     0.554632625000     0.192923560000    -0.278508   
O191     O      0.368864800000     0.554632625000     0.692923560000    -0.278508   
O191     O      0.868864800000     0.054632625000     0.192923560000    -0.278508   
O191     O      0.868864800000     0.054632625000     0.692923560000    -0.278508   
O191     O      0.868864800000     0.554632625000     0.192923560000    -0.278508   
O191     O      0.868864800000     0.554632625000     0.692923560000    -0.278508   
O192     O      0.364351420000     0.232665285000     0.116098940000    -0.217957   
O192     O      0.364351420000     0.232665285000     0.616098940000    -0.217957   
O192     O      0.364351420000     0.732665285000     0.116098940000    -0.217957   
O192     O      0.364351420000     0.732665285000     0.616098940000    -0.217957   
O192     O      0.864351420000     0.232665285000     0.116098940000    -0.217957   
O192     O      0.864351420000     0.232665285000     0.616098940000    -0.217957   
O192     O      0.864351420000     0.732665285000     0.116098940000    -0.217957   
O192     O      0.864351420000     0.732665285000     0.616098940000    -0.217957   
O193     O      0.292899600000     0.190880580000     0.110661305000    -0.171086   
O193     O      0.292899600000     0.190880580000     0.610661305000    -0.171086   
O193     O      0.292899600000     0.690880580000     0.110661305000    -0.171086   
O193     O      0.292899600000     0.690880580000     0.610661305000    -0.171086   
O193     O      0.792899600000     0.190880580000     0.110661305000    -0.171086   
O193     O      0.792899600000     0.190880580000     0.610661305000    -0.171086   
O193     O      0.792899600000     0.690880580000     0.110661305000    -0.171086   
O193     O      0.792899600000     0.690880580000     0.610661305000    -0.171086   
O194     O      0.239313630000     0.355096280000     0.456229420000    -0.279479   
O194     O      0.239313630000     0.355096280000     0.956229420000    -0.279479   
O194     O      0.239313630000     0.855096280000     0.456229420000    -0.279479   
O194     O      0.239313630000     0.855096280000     0.956229420000    -0.279479   
O194     O      0.739313630000     0.355096280000     0.456229420000    -0.279479   
O194     O      0.739313630000     0.355096280000     0.956229420000    -0.279479   
O194     O      0.739313630000     0.855096280000     0.456229420000    -0.279479   
O194     O      0.739313630000     0.855096280000     0.956229420000    -0.279479   
O195     O      0.167270320000     0.316140025000     0.453549100000    -0.364653   
O195     O      0.167270320000     0.316140025000     0.953549100000    -0.364653   
O195     O      0.167270320000     0.816140025000     0.453549100000    -0.364653   
O195     O      0.167270320000     0.816140025000     0.953549100000    -0.364653   
O195     O      0.667270320000     0.316140025000     0.453549100000    -0.364653   
O195     O      0.667270320000     0.316140025000     0.953549100000    -0.364653   
O195     O      0.667270320000     0.816140025000     0.453549100000    -0.364653   
O195     O      0.667270320000     0.816140025000     0.953549100000    -0.364653   
O196     O      0.008131045000     0.432876800000     0.343593865000    -1.38793    
O196     O      0.008131045000     0.432876800000     0.843593865000    -1.38793    
O196     O      0.008131045000     0.932876800000     0.343593865000    -1.38793    
O196     O      0.008131045000     0.932876800000     0.843593865000    -1.38793    
O196     O      0.508131045000     0.432876800000     0.343593865000    -1.38793    
O196     O      0.508131045000     0.432876800000     0.843593865000    -1.38793    
O196     O      0.508131045000     0.932876800000     0.343593865000    -1.38793    
O196     O      0.508131045000     0.932876800000     0.843593865000    -1.38793    
O197     O      0.081872935000     0.469882800000     0.356513320000    -0.311846   
O197     O      0.081872935000     0.469882800000     0.856513320000    -0.311846   
O197     O      0.081872935000     0.969882800000     0.356513320000    -0.311846   
O197     O      0.081872935000     0.969882800000     0.856513320000    -0.311846   
O197     O      0.581872935000     0.469882800000     0.356513320000    -0.311846   
O197     O      0.581872935000     0.469882800000     0.856513320000    -0.311846   
O197     O      0.581872935000     0.969882800000     0.356513320000    -0.311846   
O197     O      0.581872935000     0.969882800000     0.856513320000    -0.311846   
O198     O      0.038071080000     0.089846260000     0.107151935000    -0.328467   
O198     O      0.038071080000     0.089846260000     0.607151935000    -0.328467   
O198     O      0.038071080000     0.589846260000     0.107151935000    -0.328467   
O198     O      0.038071080000     0.589846260000     0.607151935000    -0.328467   
O198     O      0.538071080000     0.089846260000     0.107151935000    -0.328467   
O198     O      0.538071080000     0.089846260000     0.607151935000    -0.328467   
O198     O      0.538071080000     0.589846260000     0.107151935000    -0.328467   
O198     O      0.538071080000     0.589846260000     0.607151935000    -0.328467   
O199     O      0.122026675000     0.066189075000     0.108702295000     0.020521   
O199     O      0.122026675000     0.066189075000     0.608702295000     0.020521   
O199     O      0.122026675000     0.566189075000     0.108702295000     0.020521   
O199     O      0.122026675000     0.566189075000     0.608702295000     0.020521   
O199     O      0.622026675000     0.066189075000     0.108702295000     0.020521   
O199     O      0.622026675000     0.066189075000     0.608702295000     0.020521   
O199     O      0.622026675000     0.566189075000     0.108702295000     0.020521   
O199     O      0.622026675000     0.566189075000     0.608702295000     0.020521   
O200     O      0.431447250000     0.485974400000     0.217140185000    -0.324839   
O200     O      0.431447250000     0.485974400000     0.717140185000    -0.324839   
O200     O      0.431447250000     0.985974400000     0.217140185000    -0.324839   
O200     O      0.431447250000     0.985974400000     0.717140185000    -0.324839   
O200     O      0.931447250000     0.485974400000     0.217140185000    -0.324839   
O200     O      0.931447250000     0.485974400000     0.717140185000    -0.324839   
O200     O      0.931447250000     0.985974400000     0.217140185000    -0.324839   
O200     O      0.931447250000     0.985974400000     0.717140185000    -0.324839   
O201     O      0.015402835000     0.462317200000     0.218690560000    -0.186117   
O201     O      0.015402835000     0.462317200000     0.718690560000    -0.186117   
O201     O      0.015402835000     0.962317200000     0.218690560000    -0.186117   
O201     O      0.015402835000     0.962317200000     0.718690560000    -0.186117   
O201     O      0.515402835000     0.462317200000     0.218690560000    -0.186117   
O201     O      0.515402835000     0.462317200000     0.718690560000    -0.186117   
O201     O      0.515402835000     0.962317200000     0.218690560000    -0.186117   
O201     O      0.515402835000     0.962317200000     0.718690560000    -0.186117   
O202     O      0.446702200000     0.050227810000     0.117952930000    -0.462443   
O202     O      0.446702200000     0.050227810000     0.617952930000    -0.462443   
O202     O      0.446702200000     0.550227810000     0.117952930000    -0.462443   
O202     O      0.446702200000     0.550227810000     0.617952930000    -0.462443   
O202     O      0.946702200000     0.050227810000     0.117952930000    -0.462443   
O202     O      0.946702200000     0.050227810000     0.617952930000    -0.462443   
O202     O      0.946702200000     0.550227810000     0.117952930000    -0.462443   
O202     O      0.946702200000     0.550227810000     0.617952930000    -0.462443   
O203     O      0.459084650000     0.494933935000     0.112013115000    -0.164188   
O203     O      0.459084650000     0.494933935000     0.612013115000    -0.164188   
O203     O      0.459084650000     0.994933935000     0.112013115000    -0.164188   
O203     O      0.459084650000     0.994933935000     0.612013115000    -0.164188   
O203     O      0.959084650000     0.494933935000     0.112013115000    -0.164188   
O203     O      0.959084650000     0.494933935000     0.612013115000    -0.164188   
O203     O      0.959084650000     0.994933935000     0.112013115000    -0.164188   
O203     O      0.959084650000     0.994933935000     0.612013115000    -0.164188   
O204     O      0.247568875000     0.438825875000     0.226834100000    -0.24103    
O204     O      0.247568875000     0.438825875000     0.726834100000    -0.24103    
O204     O      0.247568875000     0.938825875000     0.226834100000    -0.24103    
O204     O      0.247568875000     0.938825875000     0.726834100000    -0.24103    
O204     O      0.747568875000     0.438825875000     0.226834100000    -0.24103    
O204     O      0.747568875000     0.438825875000     0.726834100000    -0.24103    
O204     O      0.747568875000     0.938825875000     0.226834100000    -0.24103    
O204     O      0.747568875000     0.938825875000     0.726834100000    -0.24103    
O205     O      0.345247800000     0.385479780000     0.234576315000    -0.130937   
O205     O      0.345247800000     0.385479780000     0.734576315000    -0.130937   
O205     O      0.345247800000     0.885479780000     0.234576315000    -0.130937   
O205     O      0.345247800000     0.885479780000     0.734576315000    -0.130937   
O205     O      0.845247800000     0.385479780000     0.234576315000    -0.130937   
O205     O      0.845247800000     0.385479780000     0.734576315000    -0.130937   
O205     O      0.845247800000     0.885479780000     0.234576315000    -0.130937   
O205     O      0.845247800000     0.885479780000     0.734576315000    -0.130937   
O206     O      0.390505015000     0.429255515000     0.267251520000    -0.264411   
O206     O      0.390505015000     0.429255515000     0.767251520000    -0.264411   
O206     O      0.390505015000     0.929255515000     0.267251520000    -0.264411   
O206     O      0.390505015000     0.929255515000     0.767251520000    -0.264411   
O206     O      0.890505015000     0.429255515000     0.267251520000    -0.264411   
O206     O      0.890505015000     0.429255515000     0.767251520000    -0.264411   
O206     O      0.890505015000     0.929255515000     0.267251520000    -0.264411   
O206     O      0.890505015000     0.929255515000     0.767251520000    -0.264411   
O207     O      0.476826875000     0.345730150000     0.203828440000    -0.221082   
O207     O      0.476826875000     0.345730150000     0.703828440000    -0.221082   
O207     O      0.476826875000     0.845730150000     0.203828440000    -0.221082   
O207     O      0.476826875000     0.845730150000     0.703828440000    -0.221082   
O207     O      0.976826875000     0.345730150000     0.203828440000    -0.221082   
O207     O      0.976826875000     0.345730150000     0.703828440000    -0.221082   
O207     O      0.976826875000     0.845730150000     0.203828440000    -0.221082   
O207     O      0.976826875000     0.845730150000     0.703828440000    -0.221082   
O208     O      0.240613715000     0.366805150000     0.105446700000    -0.766043   
O208     O      0.240613715000     0.366805150000     0.605446700000    -0.766043   
O208     O      0.240613715000     0.866805150000     0.105446700000    -0.766043   
O208     O      0.240613715000     0.866805150000     0.605446700000    -0.766043   
O208     O      0.740613715000     0.366805150000     0.105446700000    -0.766043   
O208     O      0.740613715000     0.366805150000     0.605446700000    -0.766043   
O208     O      0.740613715000     0.866805150000     0.105446700000    -0.766043   
O208     O      0.740613715000     0.866805150000     0.605446700000    -0.766043   
O209     O      0.002463100000     0.400003750000     0.207164200000    -0.153515   
O209     O      0.002463100000     0.400003750000     0.707164200000    -0.153515   
O209     O      0.002463100000     0.900003750000     0.207164200000    -0.153515   
O209     O      0.002463100000     0.900003750000     0.707164200000    -0.153515   
O209     O      0.502463100000     0.400003750000     0.207164200000    -0.153515   
O209     O      0.502463100000     0.400003750000     0.707164200000    -0.153515   
O209     O      0.502463100000     0.900003750000     0.207164200000    -0.153515   
O209     O      0.502463100000     0.900003750000     0.707164200000    -0.153515   
O210     O      0.266249950000     0.421078750000     0.108782410000    -0.135777   
O210     O      0.266249950000     0.421078750000     0.608782410000    -0.135777   
O210     O      0.266249950000     0.921078750000     0.108782410000    -0.135777   
O210     O      0.266249950000     0.921078750000     0.608782410000    -0.135777   
O210     O      0.766249950000     0.421078750000     0.108782410000    -0.135777   
O210     O      0.766249950000     0.421078750000     0.608782410000    -0.135777   
O210     O      0.766249950000     0.921078750000     0.108782410000    -0.135777   
O210     O      0.766249950000     0.921078750000     0.608782410000    -0.135777   
O211     O      0.422623300000     0.298457850000     0.129188685000    -0.073649   
O211     O      0.422623300000     0.298457850000     0.629188685000    -0.073649   
O211     O      0.422623300000     0.798457850000     0.129188685000    -0.073649   
O211     O      0.422623300000     0.798457850000     0.629188685000    -0.073649   
O211     O      0.922623300000     0.298457850000     0.129188685000    -0.073649   
O211     O      0.922623300000     0.298457850000     0.629188685000    -0.073649   
O211     O      0.922623300000     0.798457850000     0.129188685000    -0.073649   
O211     O      0.922623300000     0.798457850000     0.629188685000    -0.073649   
O212     O      0.333371900000     0.348995750000     0.067810775000    -0.228142   
O212     O      0.333371900000     0.348995750000     0.567810775000    -0.228142   
O212     O      0.333371900000     0.848995750000     0.067810775000    -0.228142   
O212     O      0.333371900000     0.848995750000     0.567810775000    -0.228142   
O212     O      0.833371900000     0.348995750000     0.067810775000    -0.228142   
O212     O      0.833371900000     0.348995750000     0.567810775000    -0.228142   
O212     O      0.833371900000     0.848995750000     0.067810775000    -0.228142   
O212     O      0.833371900000     0.848995750000     0.567810775000    -0.228142   
O213     O      0.277868600000     0.484990200000     0.179697600000    -0.290352   
O213     O      0.277868600000     0.484990200000     0.679697600000    -0.290352   
O213     O      0.277868600000     0.984990200000     0.179697600000    -0.290352   
O213     O      0.277868600000     0.984990200000     0.679697600000    -0.290352   
O213     O      0.777868600000     0.484990200000     0.179697600000    -0.290352   
O213     O      0.777868600000     0.484990200000     0.679697600000    -0.290352   
O213     O      0.777868600000     0.984990200000     0.179697600000    -0.290352   
O213     O      0.777868600000     0.984990200000     0.679697600000    -0.290352   
O214     O      0.358072900000     0.482927100000     0.150876180000    -0.194093   
O214     O      0.358072900000     0.482927100000     0.650876180000    -0.194093   
O214     O      0.358072900000     0.982927100000     0.150876180000    -0.194093   
O214     O      0.358072900000     0.982927100000     0.650876180000    -0.194093   
O214     O      0.858072900000     0.482927100000     0.150876180000    -0.194093   
O214     O      0.858072900000     0.482927100000     0.650876180000    -0.194093   
O214     O      0.858072900000     0.982927100000     0.150876180000    -0.194093   
O214     O      0.858072900000     0.982927100000     0.650876180000    -0.194093   
O215     O      0.403304935000     0.486561925000     0.230794460000    -0.096818   
O215     O      0.403304935000     0.486561925000     0.730794460000    -0.096818   
O215     O      0.403304935000     0.986561925000     0.230794460000    -0.096818   
O215     O      0.403304935000     0.986561925000     0.730794460000    -0.096818   
O215     O      0.903304935000     0.486561925000     0.230794460000    -0.096818   
O215     O      0.903304935000     0.486561925000     0.730794460000    -0.096818   
O215     O      0.903304935000     0.986561925000     0.230794460000    -0.096818   
O215     O      0.903304935000     0.986561925000     0.730794460000    -0.096818   
O216     O      0.470549650000     0.465807885000     0.197236900000    -0.220835   
O216     O      0.470549650000     0.465807885000     0.697236900000    -0.220835   
O216     O      0.470549650000     0.965807885000     0.197236900000    -0.220835   
O216     O      0.470549650000     0.965807885000     0.697236900000    -0.220835   
O216     O      0.970549650000     0.465807885000     0.197236900000    -0.220835   
O216     O      0.970549650000     0.465807885000     0.697236900000    -0.220835   
O216     O      0.970549650000     0.965807885000     0.197236900000    -0.220835   
O216     O      0.970549650000     0.965807885000     0.697236900000    -0.220835   
O217     O      0.241495280000     0.395735750000     0.185887800000    -0.309318   
O217     O      0.241495280000     0.395735750000     0.685887800000    -0.309318   
O217     O      0.241495280000     0.895735750000     0.185887800000    -0.309318   
O217     O      0.241495280000     0.895735750000     0.685887800000    -0.309318   
O217     O      0.741495280000     0.395735750000     0.185887800000    -0.309318   
O217     O      0.741495280000     0.395735750000     0.685887800000    -0.309318   
O217     O      0.741495280000     0.895735750000     0.185887800000    -0.309318   
O217     O      0.741495280000     0.895735750000     0.685887800000    -0.309318   
O218     O      0.242912280000     0.342169800000     0.031079635000    -0.240985   
O218     O      0.242912280000     0.342169800000     0.531079635000    -0.240985   
O218     O      0.242912280000     0.842169800000     0.031079635000    -0.240985   
O218     O      0.242912280000     0.842169800000     0.531079635000    -0.240985   
O218     O      0.742912280000     0.342169800000     0.031079635000    -0.240985   
O218     O      0.742912280000     0.342169800000     0.531079635000    -0.240985   
O218     O      0.742912280000     0.842169800000     0.031079635000    -0.240985   
O218     O      0.742912280000     0.842169800000     0.531079635000    -0.240985   
O219     O      0.376778250000     0.064709930000     0.347582000000    -0.548812   
O219     O      0.376778250000     0.064709930000     0.847582000000    -0.548812   
O219     O      0.376778250000     0.564709930000     0.347582000000    -0.548812   
O219     O      0.376778250000     0.564709930000     0.847582000000    -0.548812   
O219     O      0.876778250000     0.064709930000     0.347582000000    -0.548812   
O219     O      0.876778250000     0.064709930000     0.847582000000    -0.548812   
O219     O      0.876778250000     0.564709930000     0.347582000000    -0.548812   
O219     O      0.876778250000     0.564709930000     0.847582000000    -0.548812   
O220     O      0.466201275000     0.090199565000     0.358532280000    -0.223548   
O220     O      0.466201275000     0.090199565000     0.858532280000    -0.223548   
O220     O      0.466201275000     0.590199565000     0.358532280000    -0.223548   
O220     O      0.466201275000     0.590199565000     0.858532280000    -0.223548   
O220     O      0.966201275000     0.090199565000     0.358532280000    -0.223548   
O220     O      0.966201275000     0.090199565000     0.858532280000    -0.223548   
O220     O      0.966201275000     0.590199565000     0.358532280000    -0.223548   
O220     O      0.966201275000     0.590199565000     0.858532280000    -0.223548   
O221     O      0.007795630000     0.155942960000     0.376936500000    -0.540302   
O221     O      0.007795630000     0.155942960000     0.876936500000    -0.540302   
O221     O      0.007795630000     0.655942960000     0.376936500000    -0.540302   
O221     O      0.007795630000     0.655942960000     0.876936500000    -0.540302   
O221     O      0.507795630000     0.155942960000     0.376936500000    -0.540302   
O221     O      0.507795630000     0.155942960000     0.876936500000    -0.540302   
O221     O      0.507795630000     0.655942960000     0.376936500000    -0.540302   
O221     O      0.507795630000     0.655942960000     0.876936500000    -0.540302   
O222     O      0.459856720000     0.146872180000     0.322177650000    -0.446725   
O222     O      0.459856720000     0.146872180000     0.822177650000    -0.446725   
O222     O      0.459856720000     0.646872180000     0.322177650000    -0.446725   
O222     O      0.459856720000     0.646872180000     0.822177650000    -0.446725   
O222     O      0.959856720000     0.146872180000     0.322177650000    -0.446725   
O222     O      0.959856720000     0.146872180000     0.822177650000    -0.446725   
O222     O      0.959856720000     0.646872180000     0.322177650000    -0.446725   
O222     O      0.959856720000     0.646872180000     0.822177650000    -0.446725   
O223     O      0.458619325000     0.205143720000     0.356166570000    -0.222096   
O223     O      0.458619325000     0.205143720000     0.856166570000    -0.222096   
O223     O      0.458619325000     0.705143720000     0.356166570000    -0.222096   
O223     O      0.458619325000     0.705143720000     0.856166570000    -0.222096   
O223     O      0.958619325000     0.205143720000     0.356166570000    -0.222096   
O223     O      0.958619325000     0.205143720000     0.856166570000    -0.222096   
O223     O      0.958619325000     0.705143720000     0.356166570000    -0.222096   
O223     O      0.958619325000     0.705143720000     0.856166570000    -0.222096   
O224     O      0.276051750000     0.190072330000     0.449988930000    -0.774679   
O224     O      0.276051750000     0.190072330000     0.949988930000    -0.774679   
O224     O      0.276051750000     0.690072330000     0.449988930000    -0.774679   
O224     O      0.276051750000     0.690072330000     0.949988930000    -0.774679   
O224     O      0.776051750000     0.190072330000     0.449988930000    -0.774679   
O224     O      0.776051750000     0.190072330000     0.949988930000    -0.774679   
O224     O      0.776051750000     0.690072330000     0.449988930000    -0.774679   
O224     O      0.776051750000     0.690072330000     0.949988930000    -0.774679   
O225     O      0.328169465000     0.189291350000     0.334857820000    -0.275361   
O225     O      0.328169465000     0.189291350000     0.834857820000    -0.275361   
O225     O      0.328169465000     0.689291350000     0.334857820000    -0.275361   
O225     O      0.328169465000     0.689291350000     0.834857820000    -0.275361   
O225     O      0.828169465000     0.189291350000     0.334857820000    -0.275361   
O225     O      0.828169465000     0.189291350000     0.834857820000    -0.275361   
O225     O      0.828169465000     0.689291350000     0.334857820000    -0.275361   
O225     O      0.828169465000     0.689291350000     0.834857820000    -0.275361   
O226     O      0.262909350000     0.197244050000     0.380459550000    -0.539438   
O226     O      0.262909350000     0.197244050000     0.880459550000    -0.539438   
O226     O      0.262909350000     0.697244050000     0.380459550000    -0.539438   
O226     O      0.262909350000     0.697244050000     0.880459550000    -0.539438   
O226     O      0.762909350000     0.197244050000     0.380459550000    -0.539438   
O226     O      0.762909350000     0.197244050000     0.880459550000    -0.539438   
O226     O      0.762909350000     0.697244050000     0.380459550000    -0.539438   
O226     O      0.762909350000     0.697244050000     0.880459550000    -0.539438   
O227     O      0.354302250000     0.237842665000     0.381001770000    -0.383229   
O227     O      0.354302250000     0.237842665000     0.881001770000    -0.383229   
O227     O      0.354302250000     0.737842665000     0.381001770000    -0.383229   
O227     O      0.354302250000     0.737842665000     0.881001770000    -0.383229   
O227     O      0.854302250000     0.237842665000     0.381001770000    -0.383229   
O227     O      0.854302250000     0.237842665000     0.881001770000    -0.383229   
O227     O      0.854302250000     0.737842665000     0.381001770000    -0.383229   
O227     O      0.854302250000     0.737842665000     0.881001770000    -0.383229   
O228     O      0.365474750000     0.215561970000     0.460939170000    -0.274662   
O228     O      0.365474750000     0.215561970000     0.960939170000    -0.274662   
O228     O      0.365474750000     0.715561970000     0.460939170000    -0.274662   
O228     O      0.365474750000     0.715561970000     0.960939170000    -0.274662   
O228     O      0.865474750000     0.215561970000     0.460939170000    -0.274662   
O228     O      0.865474750000     0.215561970000     0.960939170000    -0.274662   
O228     O      0.865474750000     0.715561970000     0.460939170000    -0.274662   
O228     O      0.865474750000     0.715561970000     0.960939170000    -0.274662   
O229     O      0.497848780000     0.433213470000     0.278447570000    -0.073014   
O229     O      0.497848780000     0.433213470000     0.778447570000    -0.073014   
O229     O      0.497848780000     0.933213470000     0.278447570000    -0.073014   
O229     O      0.497848780000     0.933213470000     0.778447570000    -0.073014   
O229     O      0.997848780000     0.433213470000     0.278447570000    -0.073014   
O229     O      0.997848780000     0.433213470000     0.778447570000    -0.073014   
O229     O      0.997848780000     0.933213470000     0.278447570000    -0.073014   
O229     O      0.997848780000     0.933213470000     0.778447570000    -0.073014   
O230     O      0.056151720000     0.081602940000     0.474486000000    -0.30695    
O230     O      0.056151720000     0.081602940000     0.974486000000    -0.30695    
O230     O      0.056151720000     0.581602940000     0.474486000000    -0.30695    
O230     O      0.056151720000     0.581602940000     0.974486000000    -0.30695    
O230     O      0.556151720000     0.081602940000     0.474486000000    -0.30695    
O230     O      0.556151720000     0.081602940000     0.974486000000    -0.30695    
O230     O      0.556151720000     0.581602940000     0.474486000000    -0.30695    
O230     O      0.556151720000     0.581602940000     0.974486000000    -0.30695    
O231     O      0.193889930000     0.144600360000     0.314218350000    -0.181239   
O231     O      0.193889930000     0.144600360000     0.814218350000    -0.181239   
O231     O      0.193889930000     0.644600360000     0.314218350000    -0.181239   
O231     O      0.193889930000     0.644600360000     0.814218350000    -0.181239   
O231     O      0.693889930000     0.144600360000     0.314218350000    -0.181239   
O231     O      0.693889930000     0.144600360000     0.814218350000    -0.181239   
O231     O      0.693889930000     0.644600360000     0.314218350000    -0.181239   
O231     O      0.693889930000     0.644600360000     0.814218350000    -0.181239   
O232     O      0.049230320000     0.135324180000     0.491863280000    -0.202911   
O232     O      0.049230320000     0.135324180000     0.991863280000    -0.202911   
O232     O      0.049230320000     0.635324180000     0.491863280000    -0.202911   
O232     O      0.049230320000     0.635324180000     0.991863280000    -0.202911   
O232     O      0.549230320000     0.135324180000     0.491863280000    -0.202911   
O232     O      0.549230320000     0.135324180000     0.991863280000    -0.202911   
O232     O      0.549230320000     0.635324180000     0.491863280000    -0.202911   
O232     O      0.549230320000     0.635324180000     0.991863280000    -0.202911   
O233     O      0.171428700000     0.195264815000     0.334252650000     1.01484    
O233     O      0.171428700000     0.195264815000     0.834252650000     1.01484    
O233     O      0.171428700000     0.695264815000     0.334252650000     1.01484    
O233     O      0.171428700000     0.695264815000     0.834252650000     1.01484    
O233     O      0.671428700000     0.195264815000     0.334252650000     1.01484    
O233     O      0.671428700000     0.195264815000     0.834252650000     1.01484    
O233     O      0.671428700000     0.695264815000     0.334252650000     1.01484    
O233     O      0.671428700000     0.695264815000     0.834252650000     1.01484    
O234     O      0.496325285000     0.098182665000     0.030513630000     1.07117    
O234     O      0.496325285000     0.098182665000     0.530513630000     1.07117    
O234     O      0.496325285000     0.598182665000     0.030513630000     1.07117    
O234     O      0.496325285000     0.598182665000     0.530513630000     1.07117    
O234     O      0.996325285000     0.098182665000     0.030513630000     1.07117    
O234     O      0.996325285000     0.098182665000     0.530513630000     1.07117    
O234     O      0.996325285000     0.598182665000     0.030513630000     1.07117    
O234     O      0.996325285000     0.598182665000     0.530513630000     1.07117    
O235     O      0.229076130000     0.303741070000     0.254091770000     1.15731    
O235     O      0.229076130000     0.303741070000     0.754091770000     1.15731    
O235     O      0.229076130000     0.803741070000     0.254091770000     1.15731    
O235     O      0.229076130000     0.803741070000     0.754091770000     1.15731    
O235     O      0.729076130000     0.303741070000     0.254091770000     1.15731    
O235     O      0.729076130000     0.303741070000     0.754091770000     1.15731    
O235     O      0.729076130000     0.803741070000     0.254091770000     1.15731    
O235     O      0.729076130000     0.803741070000     0.754091770000     1.15731    
O236     O      0.184683920000     0.252875550000     0.248388320000     1.01918    
O236     O      0.184683920000     0.252875550000     0.748388320000     1.01918    
O236     O      0.184683920000     0.752875550000     0.248388320000     1.01918    
O236     O      0.184683920000     0.752875550000     0.748388320000     1.01918    
O236     O      0.684683920000     0.252875550000     0.248388320000     1.01918    
O236     O      0.684683920000     0.252875550000     0.748388320000     1.01918    
O236     O      0.684683920000     0.752875550000     0.248388320000     1.01918    
O236     O      0.684683920000     0.752875550000     0.748388320000     1.01918    
O237     O      0.291803200000     0.265655070000     0.063555510000     0.978997   
O237     O      0.291803200000     0.265655070000     0.563555510000     0.978997   
O237     O      0.291803200000     0.765655070000     0.063555510000     0.978997   
O237     O      0.291803200000     0.765655070000     0.563555510000     0.978997   
O237     O      0.791803200000     0.265655070000     0.063555510000     0.978997   
O237     O      0.791803200000     0.265655070000     0.563555510000     0.978997   
O237     O      0.791803200000     0.765655070000     0.063555510000     0.978997   
O237     O      0.791803200000     0.765655070000     0.563555510000     0.978997   
O238     O      0.234827965000     0.218933100000     0.063302010000     0.914692   
O238     O      0.234827965000     0.218933100000     0.563302010000     0.914692   
O238     O      0.234827965000     0.718933100000     0.063302010000     0.914692   
O238     O      0.234827965000     0.718933100000     0.563302010000     0.914692   
O238     O      0.734827965000     0.218933100000     0.063302010000     0.914692   
O238     O      0.734827965000     0.218933100000     0.563302010000     0.914692   
O238     O      0.734827965000     0.718933100000     0.063302010000     0.914692   
O238     O      0.734827965000     0.718933100000     0.563302010000     0.914692   
O239     O      0.220957175000     0.362529600000     0.445107075000     1.69741    
O239     O      0.220957175000     0.362529600000     0.945107075000     1.69741    
O239     O      0.220957175000     0.862529600000     0.445107075000     1.69741    
O239     O      0.220957175000     0.862529600000     0.945107075000     1.69741    
O239     O      0.720957175000     0.362529600000     0.445107075000     1.69741    
O239     O      0.720957175000     0.362529600000     0.945107075000     1.69741    
O239     O      0.720957175000     0.862529600000     0.445107075000     1.69741    
O239     O      0.720957175000     0.862529600000     0.945107075000     1.69741    
O240     O      0.278030900000     0.321708620000     0.454133500000     1.05881    
O240     O      0.278030900000     0.321708620000     0.954133500000     1.05881    
O240     O      0.278030900000     0.821708620000     0.454133500000     1.05881    
O240     O      0.278030900000     0.821708620000     0.954133500000     1.05881    
O240     O      0.778030900000     0.321708620000     0.454133500000     1.05881    
O240     O      0.778030900000     0.321708620000     0.954133500000     1.05881    
O240     O      0.778030900000     0.821708620000     0.454133500000     1.05881    
O240     O      0.778030900000     0.821708620000     0.954133500000     1.05881    
O241     O      0.477598100000     0.444447750000     0.350199000000     0.91013    
O241     O      0.477598100000     0.444447750000     0.850199000000     0.91013    
O241     O      0.477598100000     0.944447750000     0.350199000000     0.91013    
O241     O      0.477598100000     0.944447750000     0.850199000000     0.91013    
O241     O      0.977598100000     0.444447750000     0.350199000000     0.91013    
O241     O      0.977598100000     0.444447750000     0.850199000000     0.91013    
O241     O      0.977598100000     0.944447750000     0.350199000000     0.91013    
O241     O      0.977598100000     0.944447750000     0.850199000000     0.91013    
O242     O      0.028914630000     0.404883800000     0.368894130000     1.17591    
O242     O      0.028914630000     0.404883800000     0.868894130000     1.17591    
O242     O      0.028914630000     0.904883800000     0.368894130000     1.17591    
O242     O      0.028914630000     0.904883800000     0.868894130000     1.17591    
O242     O      0.528914630000     0.404883800000     0.368894130000     1.17591    
O242     O      0.528914630000     0.404883800000     0.868894130000     1.17591    
O242     O      0.528914630000     0.904883800000     0.368894130000     1.17591    
O242     O      0.528914630000     0.904883800000     0.868894130000     1.17591    


