data_I
_chemical_name_common  'nh3_guided_samples/cif/sample_4'
_cell_length_a 12.07001
_cell_length_b 11.77637
_cell_length_c 24.89059
_cell_angle_alpha 102.37394
_cell_angle_beta  101.52469
_cell_angle_gamma 95.42709
_space_group_name_H-M_alt      'P 1'


loop_
_space_group_symop_operation_xyz
  'x, y, z' 

loop_
_atom_site_label
_atom_site_fract_x
_atom_site_fract_y
_atom_site_fract_z
_atom_site_type_symbol
H0    0.20024265 0.028409354 0.8394579     H
H1    0.28945127 0.25488153 0.7515058     H
H2    0.2859945 0.3676501 0.9147118     H
H3    0.36770648 0.04533005 0.77440274     H
H4    0.45294714 0.38756236 0.8491143     H
H5    0.36394516 0.1609334 0.93698317     H
C6    0.55207556 0.17878722 0.8765702     C
C7    0.10174887 0.23941727 0.8124377     C
C8    0.34568638 0.18222894 0.8950344     C
C9    0.30780086 0.23335643 0.7934118     C
C10   0.2586445 0.10890308 0.84176254     C
C11   0.39473307 0.30686656 0.8467172     C
C12   0.22062102 0.2234434 0.82988715     C
C13   0.43290603 0.19264793 0.8587303     C
C14   0.3056922 0.29672012 0.8828348     C
C15   0.34796274 0.1186795 0.8056448     C
O16   0.6149319 0.25599363 0.91947705     O
O17   0.039009355 0.16287841 0.7694497     O
O18   0.5890672 0.09006546 0.8488378     O
O19   0.06487401 0.32880652 0.84008884     O
H20   0.20126106 0.029612353 0.34592006     H
H21   0.4434299 0.38444385 0.34178403     H
H22   0.37844732 0.16317359 0.43738538     H
H23   0.273736 0.25096664 0.25159878     H
H24   0.29601324 0.37293085 0.41622084     H
H25   0.35269585 0.042001024 0.27176613     H
O26   0.5814148 0.09093899 0.33285785     O
C27   0.5498481 0.17372823 0.366137     C
C28   0.098558426 0.240227 0.3222689     C
C29   0.3523357 0.18317117 0.39544633     C
C30   0.29603142 0.23008274 0.29333472     C
C31   0.30960676 0.2974233 0.38409954     C
C32   0.3386162 0.11596887 0.30454764     C
C33   0.25819492 0.10884403 0.34528056     C
C34   0.38978168 0.30432713 0.3433872     C
C35   0.21759428 0.22271995 0.33411127     C
C36   0.43063542 0.19069394 0.3545266     C
O37   0.6191657 0.24174644 0.40923712     O
O38   0.0292475 0.17223045 0.27915952     O
O39   0.066998325 0.3230379 0.3555388     O
H40   0.6373405 0.6620679 0.7906018     H
H41   0.72400194 0.6787052 0.7416877     H
H42   0.8200516 0.52934885 0.7664816     H
H43   0.7245004 0.5095938 0.8107417     H
H44   0.6751354 0.7634602 0.8880356     H
H45   0.7707298 0.6182545 0.91385096     H
H46   0.9017008 0.8036788 0.77629876     H
H47   0.028003335 0.765943 0.8864546     H
H48   0.79866534 0.8674191 0.9194184     H
H49   0.8984005 0.72139925 0.9433166     H
C50   0.9471872 0.52560633 0.8737485     C
C51   0.7082593 0.8935956 0.8106825     C
C52   0.72470796 0.676656 0.7862607     C
C53   0.78728175 0.5756018 0.8025248     C
C54   0.7666391 0.7839034 0.8871851     C
C55   0.902518 0.81474507 0.8220183     C
C56   0.77529347 0.7965044 0.82691777     C
C57   0.8857389 0.62349784 0.85592026     C
C58   0.8311752 0.6841493 0.90403306     C
C59   0.969914 0.72154266 0.8449042     C
N60   0.9589127 0.9328107 0.8507379     N
N61   0.041761637 0.6736056 0.8068282     N
O62   0.8910721 0.4187695 0.8600299     O
O63   0.60025823 0.8646048 0.78423744     O
O64   0.052187443 0.55568147 0.903127     O
O65   0.7613871 0.0015243292 0.827324     O
O66   0.984203 0.0047501326 0.82044154     O
O67   0.9621071 0.9729431 0.90409774     O
O68   0.99855775 0.628462 0.7533722     O
O69   0.15195775 0.68594325 0.82547265     O
H70   0.707733 0.012294414 0.058565993     H
H71   0.935973 0.40304285 0.12762645     H
H72   0.65566903 0.20227154 0.13583308     H
H73   0.9880397 0.21306767 0.05036387     H
H74   0.7035665 0.35400873 0.06685634     H
H75   0.9401451 0.0613323 0.11934506     H
C76   0.89458656 0.25606248 0.20875894     C
C77   0.74912214 0.15927672 0.97743803     C
C78   0.7302078 0.20443188 0.11599883     C
C79   0.91351426 0.21090847 0.070197456     C
C80   0.7576079 0.28848535 0.07901375     C
C81   0.8861143 0.12687023 0.107182965     C
C82   0.75981885 0.10036301 0.07444197     C
C83   0.8838899 0.3149761 0.11175496     C
C84   0.7878201 0.18483141 0.038454447     C
C85   0.85588855 0.23050775 0.14774248     C
O86   0.8204173 0.25867182 0.23893622     O
O87   0.82329154 0.1566825 0.9472611     O
O88   0.6419339 0.14012855 0.9558029     O
O89   0.0017747879 0.27522576 0.23039444     O
H90   0.92563117 0.361983 0.56381845     H
H91   0.71832657 0.05347779 0.62592167     H
H92   0.025847077 0.18831602 0.6134077     H
H93   0.6181678 0.22715898 0.57635194     H
H94   0.8477657 0.015065295 0.5412381     H
H95   0.7965866 0.40053332 0.64829606     H
C96   0.90577084 0.2253612 0.7079019     C
C97   0.8078318 0.31359014 0.6237656     C
C98   0.7384858 0.18982968 0.48169577     C
C99   0.933548 0.1967312 0.6042141     C
C100  0.71044147 0.21863389 0.5854548     C
C101  0.8796037 0.29267728 0.57855654     C
C102  0.76436776 0.12264989 0.6111146     C
C103  0.78293765 0.19790049 0.54125184     C
C104  0.861059 0.21740906 0.64840645     C
C105  0.8361837 0.10174849 0.5659076     C
O106  0.9426982 0.13394652 0.7219778     O
O107  0.7018017 0.28128472 0.46759453     O
O108  0.9068291 0.3231697 0.7435967     O
O109  0.73767084 0.09206154 0.44597566     O
H110  0.7228192 0.84763265 0.32957536     H
H111  0.65270776 0.5992958 0.30329138     H
H112  0.99307543 0.7569533 0.48745358     H
H113  0.046275854 0.5955903 0.25729942     H
C114  0.8020316 0.50544417 0.2537716     C
C115  0.83488923 0.91039723 0.43374097     C
C116  0.81198573 0.6284747 0.28125367     C
C117  0.7974358 0.7897918 0.4016377     C
C118  0.7287775 0.66079706 0.30740404     C
C119  0.7432749 0.77335113 0.3472675     C
S120  0.8289285 0.6734689 0.43421608     S
S121  0.9418613 0.7211733 0.28990504     S
O122  0.8802867 0.5831154 0.3982338     O
O123  0.92153984 0.72727025 0.49686003     O
O124  0.9168788 0.8395596 0.2815311     O
O125  0.012889981 0.73684996 0.34861746     O
O126  0.01578486 0.661479 0.24312183     O
O127  0.7734537 0.43059042 0.28056034     O
O128  0.8677303 0.9850334 0.40771186     O
O129  0.81410295 0.47299954 0.20300214     O
O130  0.82708114 0.9426242 0.48527005     O
O131  0.7197508 0.6155842 0.4429437     O
Zn132 0.8351083 0.38011122 0.869905    Zn
Zn133 0.6728345 0.13559207 0.8426052    Zn
Zn134 0.9373102 0.1539711 0.8976856    Zn
Zn135 0.8572701 0.17043751 0.7699522    Zn
O136  0.82563674 0.21001887 0.84503525     O
Zn137 0.85645366 0.13441959 0.27404252    Zn
Zn138 0.91729546 0.15885219 0.4069844    Zn
Zn139 0.66124386 0.15953287 0.343439    Zn
Zn140 0.85093004 0.37802476 0.3578943    Zn
O141  0.8214741 0.2077148 0.3455926     O
loop_
_geom_bond_atom_site_label_1
_geom_bond_atom_site_label_2
_geom_bond_distance
_geom_bond_site_symmetry_2
_ccdc_geom_bond_type
H0    C10    1.11036       .     S
H1    C9     1.11037       .     D
H2    C14    1.10122       .     S
H3    C15    1.11029       .     S
H4    C11    1.11040       .     S
H5    C8     1.11014       .     S
C6    C13    1.45362       .     S
C6    O16    1.29322       .     S
C6    O18    1.29220       .     S
C7    C12    1.45592       .     S
C7    O17    1.29018       .     S
C7    O19    1.29632       .     S
C8    H5     1.11014       .     S
C8    C10    1.54552       .     S
C8    C13    1.53071       .     S
C8    C14    1.54374       .     D
C9    H1     1.11037       .     S
C9    C11    1.54610       .     S
C9    C12    1.53267       .     S
C9    C15    1.54680       .     S
C10   H0     1.11036       .     S
C10   C8     1.54552       .     S
C10   C12    1.53337       .     S
C10   C15    1.54655       .     S
C11   H4     1.11040       .     S
C11   C9     1.54610       .     D
C11   C13    1.53150       .     S
C11   C14    1.54444       .     S
C12   C7     1.45592       .     S
C12   C9     1.53267       .     S
C12   C10    1.53337       .     S
C12   C14    1.52974       .     S
C13   C6     1.45362       .     S
C13   C8     1.53071       .     S
C13   C11    1.53150       .     S
C13   C15    1.53373       .     S
C14   H2     1.10122       .     S
C14   C8     1.54374       .     S
C14   C11    1.54444       .     S
C14   C12    1.52974       .     D
C15   H3     1.11029       .     S
C15   C9     1.54680       .     S
C15   C10    1.54655       .     S
C15   C13    1.53373       .     S
O16   C6     1.29322       .     S
O16   Zn133  2.39143       .     S
O17   C7     1.29018       .     S
O17   Zn134  3.65931   1_455     S
O18   C6     1.29220       .     S
O18   Zn135  4.24117       .     S
O19   C7     1.29632       .     S
O19   Zn132  3.09096   1_455     S
H20   C33    1.11020       .     S
H21   C34    1.10542       .     S
H22   C29    1.11015       .     S
H23   C30    1.10562       .     S
H24   C31    1.11003       .     S
H25   C32    1.11005       .     D
O26   C27    1.27754       .     S
O26   Zn139  1.14476       .     S
C27   O26    1.27754       .     D
C27   C36    1.45149       .     S
C27   O37    1.28015       .     S
C28   C35    1.45139       .     S
C28   O38    1.28015       .     S
C28   O39    1.27754       .     S
C29   H22    1.11015       .     S
C29   C31    1.54660       .     S
C29   C33    1.54691       .     S
C29   C36    1.53162       .     S
C30   H23    1.10562       .     S
C30   C32    1.54340       .     S
C30   C34    1.54263       .     S
C30   C35    1.52974       .     S
C31   H24    1.11003       .     S
C31   C29    1.54660       .     S
C31   C34    1.54345       .     S
C31   C35    1.53277       .     S
C32   H25    1.11005       .     S
C32   C30    1.54340       .     S
C32   C33    1.54645       .     S
C32   C36    1.53277       .     D
C33   H20    1.11020       .     S
C33   C29    1.54691       .     S
C33   C32    1.54645       .     D
C33   C35    1.53150       .     S
C34   H21    1.10542       .     S
C34   C30    1.54263       .     S
C34   C31    1.54345       .     S
C34   C36    1.52970       .     S
C35   C28    1.45139       .     S
C35   C30    1.52974       .     S
C35   C31    1.53277       .     S
C35   C33    1.53150       .     S
C36   C27    1.45149       .     S
C36   C29    1.53162       .     S
C36   C32    1.53277       .     D
C36   C34    1.52970       .     S
O37   C27    1.28015       .     S
O37   Zn139  1.90351       .     S
O38   C28    1.28015       .     S
O38   Zn137  2.06354   1_455     S
O39   C28    1.27754       .     S
O39   Zn140  2.75471   1_455     D
H40   C52    1.08279       .     S
H41   C52    1.11322       .     S
H42   C53    1.10955       .     S
H43   C53    1.11308       .     D
H44   C54    1.11331       .     S
H45   C58    1.11337       .     S
H46   C55    1.11526       .     S
H47   C59    1.11523   1_455     S
H48   C54    1.10743       .     S
H49   C58    1.11297       .     S
C50   C57    1.52494       .     S
C50   O62    1.31170       .     S
C50   O64    1.30389   1_655     S
C51   C56    1.53871       .     S
C51   O63    1.31369       .     S
C51   O65    1.30855   1_565     S
C52   H40    1.08279       .     S
C52   H41    1.11322       .     S
C52   C53    1.55076       .     S
C52   C56    1.53846       .     D
C53   H42    1.10955       .     S
C53   H43    1.11308       .     D
C53   C52    1.55076       .     D
C53   C57    1.55485       .     D
C54   H44    1.11331       .     S
C54   H48    1.10743       .     S
C54   C56    1.56150       .     S
C54   C58    1.55446       .     S
C55   H46    1.11526       .     S
C55   C56    1.56293       .     S
C55   C59    1.56289       .     D
C55   N60    1.45192       .     S
C56   C51    1.53871       .     S
C56   C52    1.53846       .     S
C56   C54    1.56150       .     D
C56   C55    1.56293       .     S
C57   C50    1.52494       .     S
C57   C53    1.55485       .     S
C57   C58    1.55421       .     S
C57   C59    1.57024       .     S
C58   H45    1.11337       .     S
C58   H49    1.11297       .     S
C58   C54    1.55446       .     S
C58   C57    1.55421       .     S
C59   H47    1.11523   1_655     S
C59   C55    1.56289       .     S
C59   C57    1.57024       .     S
C59   N61    1.46991   1_655     S
N60   C55    1.45192       .     S
N60   O66    1.30247   1_565     S
N60   O67    1.30228       .     D
N61   C59    1.46991   1_455     S
N61   O68    1.30080   1_455     D
N61   O69    1.30133       .     D
O62   C50    1.31170       .     S
O62   Zn132  0.88322       .     S
O63   C51    1.31369       .     S
O63   Zn133  3.16824   1_565     S
O64   C50    1.30389   1_455     S
O64   Zn134  4.76759   1_455     S
O65   C51    1.30855   1_545     S
O65   Zn135  2.96273       .     S
O66   N60    1.30247   1_545     S
O67   N60    1.30228       .     S
O68   N61    1.30080   1_655     D
O69   N61    1.30133       .     S
H70   C82    1.10850       .     S
H71   C83    1.10846       .     S
H72   C78    1.11011       .     S
H73   C79    1.10995       .     S
H74   C80    1.10854       .     D
H75   C81    1.10864       .     S
C76   C85    1.45237       .     S
C76   O86    1.27694       .     S
C76   O89    1.27634   1_655     S
C77   C84    1.45236   1_556     S
C77   O87    1.27694       .     S
C77   O88    1.27634       .     S
C78   H72    1.11011       .     S
C78   C80    1.54496       .     S
C78   C82    1.54497       .     S
C78   C85    1.53256       .     S
C79   H73    1.10995       .     S
C79   C81    1.54484       .     S
C79   C83    1.54504       .     S
C79   C84    1.53270       .     S
C80   H74    1.10854       .     S
C80   C78    1.54496       .     S
C80   C83    1.54579       .     D
C80   C84    1.53145       .     S
C81   H75    1.10864       .     S
C81   C79    1.54484       .     S
C81   C82    1.54593       .     S
C81   C85    1.53140       .     S
C82   H70    1.10850       .     D
C82   C78    1.54497       .     S
C82   C81    1.54593       .     S
C82   C84    1.53145       .     S
C83   H71    1.10846       .     S
C83   C79    1.54504       .     S
C83   C80    1.54579       .     S
C83   C85    1.53145       .     S
C84   C77    1.45236   1_554     S
C84   C79    1.53270       .     S
C84   C80    1.53145       .     S
C84   C82    1.53145       .     S
C85   C76    1.45237       .     S
C85   C78    1.53256       .     S
C85   C81    1.53140       .     S
C85   C83    1.53145       .     S
O86   C76    1.27694       .     S
O86   Zn138  4.54511       .     S
O87   C77    1.27694       .     D
O87   Zn135  4.54851       .     D
O88   C77    1.27634       .     S
O88   Zn133  2.90513       .     S
O89   C76    1.27634   1_455     S
O89   Zn138  5.13282   1_455     S
H90   C101   1.11055       .     S
H91   C102   1.11045       .     S
H92   C99    1.10997   1_455     S
H93   C100   1.10991       .     S
H94   C105   1.10964       .     S
H95   C97    1.10951       .     S
C96   C104   1.45075       .     S
C96   O106   1.29242       .     S
C96   O108   1.29241       .     S
C97   H95    1.10951       .     S
C97   C100   1.54532       .     S
C97   C101   1.54547       .     S
C97   C104   1.53290       .     S
C98   C103   1.45139       .     S
C98   O107   1.29202       .     S
C98   O109   1.29300       .     S
C99   H92    1.10997   1_655     S
C99   C101   1.54620       .     S
C99   C104   1.53128       .     D
C99   C105   1.54527       .     D
C100  H93    1.10991       .     S
C100  C97    1.54532       .     S
C100  C102   1.54652       .     S
C100  C103   1.53160       .     S
C101  H90    1.11055       .     S
C101  C97    1.54547       .     S
C101  C99    1.54620       .     S
C101  C103   1.53162       .     S
C102  H91    1.11045       .     S
C102  C100   1.54652       .     S
C102  C104   1.53159       .     S
C102  C105   1.54580       .     S
C103  C98    1.45139       .     D
C103  C100   1.53160       .     S
C103  C101   1.53162       .     S
C103  C105   1.53287       .     S
C104  C96    1.45075       .     S
C104  C97    1.53290       .     D
C104  C99    1.53128       .     S
C104  C102   1.53159       .     S
C105  H94    1.10964       .     S
C105  C99    1.54527       .     S
C105  C102   1.54580       .     S
C105  C103   1.53287       .     S
O106  C96    1.29242       .     S
O106  Zn134  4.34300       .     S
O107  C98    1.29202       .     S
O107  Zn140  3.86039       .     S
O108  C96    1.29241       .     S
O108  Zn132  3.37296       .     S
O109  C98    1.29300       .     S
O109  Zn137  4.88364       .     D
H110  C119   1.08748       .     S
H111  C118   1.08763       .     D
H112  O123   0.99060       .     S
H113  O126   0.99072       .     S
C114  C116   1.44603       .     S
C114  O127   1.27551       .     S
C114  O129   1.28112       .     D
C115  C117   1.45187       .     S
C115  O128   1.27679       .     S
C115  O130   1.28234       .     S
C116  C114   1.44603       .     S
C116  C118   1.34334       .     S
C116  S121   1.77091       .     S
C117  C115   1.45187       .     S
C117  C119   1.34407       .     S
C117  S120   1.76917       .     S
C118  H111   1.08763       .     S
C118  C116   1.34334       .     S
C118  C119   1.44745       .     S
C119  H110   1.08748       .     S
C119  C117   1.34407       .     D
C119  C118   1.44745       .     S
S120  C117   1.76917       .     S
S120  O122   1.50225       .     S
S120  O123   1.68178       .     S
S120  O131   1.50211       .     S
S121  C116   1.77091       .     S
S121  O124   1.50233       .     S
S121  O125   1.50284   1_655     S
S121  O126   1.68204   1_655     S
O122  S120   1.50225       .     S
O123  H112   0.99060       .     S
O123  S120   1.68178       .     S
O124  S121   1.50233       .     S
O125  S121   1.50284   1_455     S
O126  H113   0.99072       .     S
O126  S121   1.68204   1_455     S
O127  C114   1.27551       .     S
O127  Zn140  2.20540       .     S
O128  C115   1.27679       .     S
O128  Zn138  2.08251   1_565     S
O129  C114   1.28112       .     S
O129  Zn137  4.72569       .     S
O130  C115   1.28234       .     S
O130  Zn139  5.00027   1_565     S
O131  S120   1.50211       .     S
Zn132 O19    3.09096   1_655     S
Zn132 O62    0.88322       .     S
Zn132 O108   3.37296       .     S
Zn132 O136   1.95078       .     S
Zn133 O16    2.39143       .     S
Zn133 O63    3.16824   1_545     S
Zn133 O88    2.90513       .     S
Zn133 O136   1.94944       .     S
Zn134 O17    3.65931   1_655     S
Zn134 O64    4.76759   1_655     S
Zn134 O106   4.34300       .     S
Zn134 O136   1.95015       .     S
Zn135 O18    4.24117       .     S
Zn135 O65    2.96273       .     S
Zn135 O87    4.54851       .     S
Zn135 O136   1.94965       .     S
O136  Zn132  1.95078       .     S
O136  Zn133  1.94944       .     S
O136  Zn134  1.95015       .     S
O136  Zn135  1.94965       .     S
Zn137 O38    2.06354   1_655     S
Zn137 O109   4.88364       .     S
Zn137 O129   4.72569       .     S
Zn137 O141   1.95078       .     S
Zn138 O86    4.54511       .     S
Zn138 O89    5.13282   1_655     S
Zn138 O128   2.08251   1_545     S
Zn138 O141   1.94944       .     S
Zn139 O26    1.14476       .     S
Zn139 O37    1.90351       .     S
Zn139 O130   5.00027   1_545     S
Zn139 O141   1.95015       .     S
Zn140 O39    2.75471   1_655     S
Zn140 O107   3.86039       .     S
Zn140 O127   2.20540       .     S
Zn140 O141   1.94965       .     S
O141  Zn137  1.95078       .     S
O141  Zn138  1.94944       .     S
O141  Zn139  1.95015       .     S
O141  Zn140  1.94965       .     S
