data_I
_chemical_name_common  'nh3_samples/cif/sample_0'
_cell_length_a  7.68164
_cell_length_b  9.09222
_cell_length_c 18.29678
_cell_angle_alpha 92.67198
_cell_angle_beta  90.50841
_cell_angle_gamma 94.63037
_space_group_name_H-M_alt      'P 1'


loop_
_space_group_symop_operation_xyz
  'x, y, z' 

loop_
_atom_site_label
_atom_site_fract_x
_atom_site_fract_y
_atom_site_fract_z
_atom_site_type_symbol
Cu0   0.70755535 0.9019471 0.6349533    Cu
Cu1   0.36384434 0.85488147 0.6477397    Cu
H2    0.8856579 0.28526306 0.9265697     H
H3    0.2516575 0.71655613 0.3685046     H
H4    0.987639 0.77856624 0.008223418     H
H5    0.073851824 0.9801022 0.26851556     H
H6    0.5971621 0.1958456 0.087724164     H
H7    0.45848638 0.5656644 0.19343744     H
H8    0.5947301 0.3267501  0.30611     H
H9    0.45964202 0.4374647 0.9768184     H
H10   0.73879385 0.6588267 0.005231169     H
H11   0.32067728 0.104661584 0.2734011     H
H12   0.17141187 0.47480756 0.35291252     H
H13   0.80857843 0.04349208 0.909122     H
C14   0.74793476 0.70548576 0.22591522     C
C15   0.37798116 0.19507813 0.030975232     C
C16   0.678124 0.566663 0.2498639     C
C17   0.85539603 0.026950955 0.96391726     C
C18   0.20388925 0.7316627 0.31368473     C
C19   0.07174197 0.8442119 0.04738685     C
C20   0.98785174 0.9143719 0.23009019     C
C21   0.757542 0.6828475 0.06349501     C
C22   0.29721385 0.07533586 0.21583161     C
C23   0.7799205 0.485634 0.2955728     C
C24   0.1056851 0.22334194 0.965125     C
C25   0.9513889 0.53763855 0.3148115     C
C26   0.6457295 0.787212 0.10367769     C
C27   0.41085547 0.9724836 0.17578274     C
C28   0.55387527 0.8765904 0.9842984     C
O29   0.7556313 0.9653505 0.0065318397     O
C30   0.5394085 0.8754239 0.06366577     C
C31   0.51816976 0.88526607 0.21584271     C
C32   0.41975364 0.9647465 0.09872032     C
C33   0.637386 0.79552144 0.18078853     C
C34   0.50388455 0.88464946 0.29521012     C
C35   0.035665236 0.08321512 0.9871281     C
C36   0.022499204 0.67651886 0.29159707     C
C37   0.13894083 0.997506 0.030592995     C
C38   0.27615902 0.27647638 0.9854417     C
C39   0.91928923 0.76206684 0.24801132     C
C40   0.30920264 0.055030107 0.05375374     C
O41   0.36053875 0.84070444 0.32427958     O
O42   0.42252815 0.8323796 0.9446534     O
O43   0.6352594 0.9289058 0.33485675     O
O44   0.011994818 0.3145665 0.9240629     O
O45   0.044941664 0.4466289 0.3560498     O
O46   0.30336916 0.7906504 0.27011943     O
O47   0.10609353 0.7903486 0.105118066     O
O48   0.69724876 0.9205809 0.9552305     O
O49   0.95260197 0.96720874 0.17219977     O
O50   0.5435503 0.25583446 0.051343966     O
O51   0.5115836 0.5068073 0.23044954     O
O52   0.7178911 0.35092878 0.32150885     O
O53   0.33713272 0.41244435 0.9606685     O
O54   0.8716251 0.6217328 0.09406946     O
O55   0.17579499 0.12832618 0.18597807     O
C56   0.51187795 0.6000361 0.6446822     C
C57   0.56222165 0.16324179 0.6357972     C
C58   0.5288613 0.44635126 0.64155084     C
C59   0.54526854 0.3169307 0.638929     C
O60   0.36011338 0.6483422 0.64461607     O
O61   0.7139861 0.11493547 0.6358634     O
O62   0.42430404 0.07546596 0.63294977     O
O63   0.6497954 0.68781173 0.64752966     O
N64   0.957387 0.8838098 0.6396818     N
N65   0.111807 0.87784076 0.6399421     N
loop_
_geom_bond_atom_site_label_1
_geom_bond_atom_site_label_2
_geom_bond_distance
_geom_bond_site_symmetry_2
_ccdc_geom_bond_type
Cu0   Cu1    2.65457       .     S
Cu0   O43    5.53270       .     S
Cu0   O48    5.85601       .     S
Cu0   O61    1.93247   1_565     S
Cu0   O63    1.98610       .     S
Cu0   N64    1.94092       .     S
Cu1   Cu0    2.65457       .     S
Cu1   O41    5.91345       .     A
Cu1   O42    5.46195       .     A
Cu1   O60    1.87400       .     D
Cu1   O62    2.05276   1_565     A
Cu1   N65    1.96860       .     S
H2    O44    0.98747   1_655     S
H3    C18    1.08352       .     D
H4    C19    1.08478   1_655     S
H5    C20    1.08477   1_455     A
H6    O50    0.98764       .     S
H7    O51    0.98766       .     D
H8    O52    0.98929       .     S
H9    O53    0.98940       .     S
H10   C21    1.08415       .     S
H11   C22    1.08434       .     D
H12   O45    0.98738       .     D
H13   C17    1.08329       .     S
C14   C16    1.42099       .     A
C14   C33    1.49527       .     A
C14   C39    1.42216       .     A
C15   C38    1.41173   1_554     A
C15   C40    1.42092       .     A
C15   O50    1.38585       .     A
C16   C14    1.42099       .     A
C16   C23    1.41157       .     S
C16   O51    1.38581       .     S
C17   H13    1.08329       .     A
C17   O29    1.22105   1_546     S
C17   C35    1.48814   1_655     S
C18   H3     1.08352       .     S
C18   C36    1.48813       .     A
C18   O46    1.22126       .     A
C19   H4     1.08478   1_455     S
C19   C37    1.49335       .     A
C19   O47    1.22040       .     S
C20   H5     1.08477   1_655     S
C20   C39    1.49338       .     A
C20   O49    1.22040       .     D
C21   H10    1.08415       .     S
C21   C26    1.50214       .     S
C21   O54    1.22008       .     D
C22   H11    1.08434       .     S
C22   C27    1.50092   1_545     S
C22   O55    1.22003       .     A
C23   C16    1.41157       .     D
C23   C25    1.39932       .     S
C23   O52    1.38430       .     A
C24   C35    1.41973       .     S
C24   C38    1.39961       .     S
C24   O44    1.38393       .     S
C25   C23    1.39932       .     S
C25   C36    1.41987   1_655     S
C25   O45    1.38386   1_655     S
C26   C21    1.50214       .     S
C26   C30    1.41285       .     S
C26   C33    1.41168       .     S
C27   C22    1.50092   1_565     A
C27   C31    1.41232       .     A
C27   C32    1.41101       .     D
C28   C30    1.45786   1_556     A
C28   O42    1.26495       .     S
C28   O48    1.27079       .     S
O29   C17    1.22105   1_564     D
C30   C26    1.41285       .     S
C30   C28    1.45786   1_554     A
C30   C32    1.41357       .     S
C31   C27    1.41232       .     D
C31   C33    1.41354       .     S
C31   C34    1.45752       .     S
C32   C27    1.41101       .     S
C32   C30    1.41357       .     D
C32   C40    1.49500   1_565     D
C33   C14    1.49527       .     S
C33   C26    1.41168       .     A
C33   C31    1.41354       .     A
C34   C31    1.45752       .     A
C34   O41    1.27051       .     A
C34   O43    1.26522       .     A
C35   C17    1.48814   1_455     A
C35   C24    1.41973       .     A
C35   C37    1.41969   1_546     S
C36   C18    1.48813       .     S
C36   C25    1.41987   1_455     A
C36   C39    1.41976   1_455     S
C37   C19    1.49335       .     S
C37   C35    1.41969   1_564     S
C37   C40    1.42224   1_565     A
C38   C15    1.41173   1_556     A
C38   C24    1.39961       .     S
C38   O53    1.38408       .     A
C39   C14    1.42216       .     S
C39   C20    1.49338       .     S
C39   C36    1.41976   1_655     A
C40   C15    1.42092       .     D
C40   C32    1.49500   1_545     S
C40   C37    1.42224   1_545     S
O41   Cu1    5.91345       .     D
O41   C34    1.27051       .     S
O42   Cu1    5.46195       .     S
O42   C28    1.26495       .     A
O43   Cu0    5.53270       .     D
O43   C34    1.26522       .     S
O44   H2     0.98747   1_455     A
O44   C24    1.38393       .     S
O45   H12    0.98738       .     S
O45   C25    1.38386   1_455     S
O46   C18    1.22126       .     S
O47   C19    1.22040       .     S
O48   Cu0    5.85601       .     D
O48   C28    1.27079       .     S
O49   C20    1.22040       .     S
O50   H6     0.98764       .     D
O50   C15    1.38585       .     S
O51   H7     0.98766       .     T
O51   C16    1.38581       .     S
O52   H8     0.98929       .     D
O52   C23    1.38430       .     S
O53   H9     0.98940       .     S
O53   C38    1.38408       .     D
O54   C21    1.22008       .     S
O55   C22    1.22003       .     T
C56   C58    1.41243       .     T
C56   O60    1.27855       .     T
C56   O63    1.27305       .     S
C57   C59    1.41242       .     S
C57   O61    1.27855       .     S
C57   O62    1.27306       .     S
C58   C56    1.41243       .     S
C58   C59    1.19233       .     S
C59   C57    1.41242       .     S
C59   C58    1.19233       .     S
O60   Cu1    1.87400       .     S
O60   C56    1.27855       .     S
O61   Cu0    1.93247   1_545     S
O61   C57    1.27855       .     S
O62   Cu1    2.05276   1_545     S
O62   C57    1.27306       .     S
O63   Cu0    1.98610       .     S
O63   C56    1.27305       .     S
N64   Cu0    1.94092       .     S
N64   N65    1.19179   1_655     S
N65   Cu1    1.96860       .     S
N65   N64    1.19179   1_455     S
