data_I
_chemical_name_common  '/home/sibivarshan_m7/MOFDiff/MOFDiff/nh3_all_samples/cif/sample_3'
_cell_length_a 12.45027
_cell_length_b 13.77991
_cell_length_c 14.43305
_cell_angle_alpha 87.64951
_cell_angle_beta  85.46680
_cell_angle_gamma 81.49460
_space_group_name_H-M_alt      'P 1'


loop_
_space_group_symop_operation_xyz
  'x, y, z' 

loop_
_atom_site_label
_atom_site_fract_x
_atom_site_fract_y
_atom_site_fract_z
_atom_site_type_symbol
H0    0.73909223 0.29277053 0.04616861     H
H1    0.8467464 0.2920757 0.11935154     H
H2    0.7159569 0.47040746 0.019088792     H
H3    0.81291926 0.48509338 0.101335     H
H4    0.9607173 0.3859242 0.00392552     H
H5    0.8958413 0.4903343 0.93950576     H
H6    0.8637587 0.36952344 0.92059237     H
H7    0.6563393 0.4036231 0.5576709     H
H8    0.5469049 0.37696177 0.4966826     H
H9    0.66582847 0.56009626 0.46429718     H
H10   0.549435 0.539079 0.40500316     H
H11   0.43834123 0.5400311 0.55801016     H
H12   0.49327835 0.65309393 0.53371733     H
H13   0.5548245 0.5640155 0.6161421     H
C14   0.65972835 0.3628545 0.3355167     C
C15   0.72940296 0.3656732 0.25810534     C
C16   0.8416785 0.38779318 0.26606053     C
C17   0.5477992 0.3399944 0.3282184     C
C18   0.7702768 0.33701184 0.09796565     C
C19   0.791351 0.43462104 0.050070714     C
C20   0.88371533 0.41876286 0.97377694     C
C21   0.6202524 0.41474068 0.489375     C
C22   0.59028286 0.5255417 0.47099876     C
C23   0.5144324 0.57338417 0.5497909     C
N24   0.45959857 0.32152063 0.32463947     N
N25   0.9301006 0.40570885 0.26956993     N
O26   0.6888533 0.35310537 0.17222221     O
O27   0.70049006 0.37303028 0.42158902     O
Cu28  0.09628576 0.4233512 0.3073353    Cu
Cu29  0.28935212 0.30835006 0.29146042    Cu
H30   0.8954811 0.9926742 0.17266326     H
H31   0.9876258 0.055220246 0.11222267     H
H32   0.21821612 0.7096036 0.41558945     H
H33   0.3412678 0.6593631 0.3602143     H
H34   0.95541245 0.1374166 0.2540365     H
H35   0.89580166 0.0555228 0.32360208     H
H36   0.16391863 0.6691746 0.057969984     H
H37   0.07085984 0.83657193 0.061655268     H
H38   0.26890212 0.077839136 0.51914495     H
H39   0.3584811 0.8102568 0.38384664     H
H40   0.38015047 0.91740054 0.5066661     H
C41   0.24876456 0.5653733 0.20104365     C
C42   0.1335011 0.16273618 0.3961935     C
C43   0.11796776 0.8089104 0.11955633     C
C44   0.22341114 0.67145324 0.1940042     C
C45   0.24880426 0.027118802 0.47002375     C
C46   0.31317523 0.9364804 0.46268594     C
C47   0.29744455 0.8735517 0.39402395     C
C48   0.20874803 0.89501363 0.3374954     C
C49   0.14301836 0.98850316 0.34408247     C
C50   0.18895166 0.8290224 0.26977223     C
C51   0.121196315 0.8658239 0.19755061     C
C52   0.051832277 0.95542777 0.20746246     C
C53   0.055382002 0.011634111 0.28602022     C
C54   0.23060918 0.7269619 0.27190608     C
C55   0.17136213 0.7133431 0.11693586     C
C56   0.16895239 0.056657076 0.40726554     C
N57   0.97399426 0.9864491 0.13992009     N
N58   0.25683245 0.67355496 0.35704154     N
N59   0.96665347 0.087631464 0.31025672     N
O60   0.17109634 0.51647097 0.21982993     O
O61   0.121215105 0.20036149 0.31373426     O
O62   0.34674776 0.52284724 0.1985011     O
O63   0.12884098 0.21753836 0.4669451     O
O64   0.13070153 0.41539153 0.17865169     O
C65   0.1737965 0.3651216 0.5721803     C
C66   0.17956133  0.36561 0.6567538     C
C67   0.19904388 0.3672725 0.9408479     C
C68   0.20489776 0.3677569 0.02541089     C
C69   0.21190356 0.36835963 0.1268605     C
C70   0.16686589 0.36452267 0.47072154     C
C71   0.18637647 0.3661991 0.75653064     C
C72   0.19218212 0.3666951 0.8410987     C
O73   0.079588376 0.41102454 0.4341112     O
O74   0.24807455 0.31750226 0.418929     O
O75   0.2991877 0.32186922 0.16346955     O
loop_
_geom_bond_atom_site_label_1
_geom_bond_atom_site_label_2
_geom_bond_distance
_geom_bond_site_symmetry_2
_ccdc_geom_bond_type
H0    C18    1.11111       .     S
H1    C18    1.11424       .     S
H2    C19    1.11157       .     S
H3    C19    1.11002       .     S
H4    C20    1.11116   1_554     S
H5    C20    1.11012       .     S
H6    C20    1.11090       .     S
H7    C21    1.11096       .     S
H8    C21    1.11219       .     S
H9    C22    1.11133       .     S
H10   C22    1.11115       .     S
H11   C23    1.10876       .     T
H12   C23    1.11033       .     S
H13   C23    1.11061       .     D
C14   C15    1.36218       .     S
C14   C17    1.48596       .     S
C14   O27    1.39839       .     T
C15   C14    1.36218       .     S
C15   C16    1.48808       .     S
C15   O26    1.40134       .     S
C16   C15    1.48808       .     S
C16   N25    1.16862       .     S
C17   C14    1.48596       .     S
C17   N24    1.16879       .     S
C18   H0     1.11111       .     S
C18   H1     1.11424       .     S
C18   C19    1.53470       .     S
C18   O26    1.41660       .     S
C19   H2     1.11157       .     S
C19   H3     1.11002       .     S
C19   C18    1.53470       .     S
C19   C20    1.52576   1_554     S
C20   H4     1.11116   1_556     S
C20   H5     1.11012       .     S
C20   H6     1.11090       .     S
C20   C19    1.52576   1_556     S
C21   H7     1.11096       .     S
C21   H8     1.11219       .     S
C21   C22    1.53450       .     T
C21   O27    1.41679       .     S
C22   H9     1.11133       .     D
C22   H10    1.11115       .     S
C22   C21    1.53450       .     S
C22   C23    1.52554       .     T
C23   H11    1.10876       .     S
C23   H12    1.11033       .     S
C23   H13    1.11061       .     S
C23   C22    1.52554       .     S
N24   C17    1.16879       .     S
N24   Cu29   2.24419       .     S
N25   C16    1.16862       .     S
N25   Cu28   2.23049   1_655     S
O26   C15    1.40134       .     S
O26   C18    1.41660       .     S
O27   C14    1.39839       .     S
O27   C21    1.41679       .     S
Cu28  N25    2.23049   1_455     S
Cu28  Cu29   2.67538       .     S
Cu28  O60    2.03564       .     A
Cu28  O62    3.79274       .     A
Cu28  O64    1.87675       .     A
Cu28  O73    1.82891       .     S
Cu29  N24    2.24419       .     A
Cu29  Cu28   2.67538       .     S
Cu29  O61    2.73417       .     D
Cu29  O63    3.41383       .     S
Cu29  O74    1.87487       .     S
Cu29  O75    1.84526       .     A
H30   N57    1.04485       .     S
H31   N57    1.04520   1_545     S
H32   N58    1.04477       .     A
H33   N58    1.04476       .     A
H34   N59    1.04525       .     A
H35   N59    1.04528       .     D
H36   C55    1.08396       .     A
H37   C43    1.08299       .     A
H38   C45    1.08359       .     A
H39   C47    1.07545       .     S
H40   C46    1.08282       .     S
C41   C44    1.45022       .     A
C41   O60    1.26452       .     S
C41   O62    1.27129       .     A
C42   C56    1.46909       .     S
C42   O61    1.28971       .     S
C42   O63    1.28738       .     A
C43   H37    1.08299       .     A
C43   C51    1.40455       .     S
C43   C55    1.38519       .     A
C44   C41    1.45022       .     S
C44   C54    1.40145       .     S
C44   C55    1.39321       .     S
C45   H38    1.08359       .     S
C45   C46    1.38377   1_545     S
C45   C56    1.40247       .     S
C46   H40    1.08282       .     A
C46   C45    1.38377   1_565     A
C46   C47    1.38701       .     A
C47   H39    1.07545       .     S
C47   C46    1.38701       .     A
C47   C48    1.41372       .     S
C48   C47    1.41372       .     D
C48   C49    1.42278       .     S
C48   C50    1.42140       .     S
C49   C48    1.42278       .     A
C49   C53    1.41919   1_565     S
C49   C56    1.42280   1_565     S
C50   C48    1.42140       .     A
C50   C51    1.42283       .     A
C50   C54    1.42516       .     A
C51   C43    1.40455       .     D
C51   C50    1.42283       .     A
C51   C52    1.40370       .     A
C52   C51    1.40370       .     A
C52   C53    1.40623   1_565     S
C52   N57    1.43695   1_455     S
C53   C49    1.41919   1_545     A
C53   C52    1.40623   1_545     S
C53   N59    1.43742   1_455     A
C54   C44    1.40145       .     S
C54   C50    1.42516       .     S
C54   N58    1.44091       .     A
C55   H36    1.08396       .     A
C55   C43    1.38519       .     S
C55   C44    1.39321       .     A
C56   C42    1.46909       .     S
C56   C45    1.40247       .     S
C56   C49    1.42280   1_545     S
N57   H30    1.04485       .     S
N57   H31    1.04520   1_565     D
N57   C52    1.43695   1_655     S
N58   H32    1.04477       .     S
N58   H33    1.04476       .     T
N58   C54    1.44091       .     S
N59   H34    1.04525       .     T
N59   H35    1.04528       .     S
N59   C53    1.43742   1_655     T
O60   Cu28   2.03564       .     S
O60   C41    1.26452       .     D
O61   Cu29   2.73417       .     S
O61   C42    1.28971       .     D
O62   Cu28   3.79274       .     S
O62   C41    1.27129       .     S
O63   Cu29   3.41383       .     T
O63   C42    1.28738       .     S
O64   Cu28   1.87675       .     T
O64   C69    1.31429       .     S
C65   C66    1.22876       .     T
C65   C70    1.47412       .     S
C66   C65    1.22876       .     D
C66   C71    1.44969       .     S
C67   C68    1.22876   1_556     S
C67   C72    1.44936       .     S
C68   C67    1.22876   1_554     S
C68   C69    1.47412       .     S
C69   O64    1.31429       .     S
C69   C68    1.47412       .     S
C69   O75    1.31438       .     S
C70   C65    1.47412       .     S
C70   O73    1.31438       .     S
C70   O74    1.31429       .     S
C71   C66    1.44969       .     S
C71   C72    1.22876       .     S
C72   C67    1.44936       .     S
C72   C71    1.22876       .     S
O73   Cu28   1.82891       .     S
O73   C70    1.31438       .     S
O74   Cu29   1.87487       .     S
O74   C70    1.31429       .     S
O75   Cu29   1.84526       .     S
O75   C69    1.31438       .     S
