# CIF file generated by MOFDiff
# Generation date: 2025-12-26 06:04:26
# Note: This is a computationally generated structure, not experimentally refined
# Space group: P1 (no symmetry operations beyond identity)
# Occupancy values: Set to 1.0 (fully occupied sites assumed)
# Displacement parameters: Estimated U_iso values (0.05 Å²)

data_I
_chemical_name_common  'Zinc-based MOF (computationally generated)'
_cell_length_a 14.65783
_cell_length_b 15.32952
_cell_length_c 15.27695
_cell_angle_alpha 71.26465
_cell_angle_beta  78.62247
_cell_angle_gamma 85.65123
_space_group_name_H-M_alt      'P 1'


loop_
_space_group_symop_operation_xyz
  'x, y, z' 

loop_
_atom_site_label
_atom_site_fract_x
_atom_site_fract_y
_atom_site_fract_z
_atom_site_type_symbol
H0    0.62262756 0.87621367 0.17038171     H
H1    0.56813455 0.5039463 0.19950022     H
H2    0.6035809 0.5428317 0.082199365     H
H3    0.9683566 0.47524726 0.19116516     H
H4    0.90088683 0.46681553 0.30069107     H
H5    0.99682826 0.77596796 0.21075629     H
H6    0.6892966 0.8870885 0.060306694     H
C7    0.8555617 0.774935 0.18977724     C
C8    0.94358236 0.73590404 0.20193803     C
C9    0.8941588 0.59203255 0.20231149     C
C10   0.8059606 0.6298296 0.18132664     C
C11   0.7856888 0.72274065 0.1759669     C
C12   0.6970152 0.76032436 0.15612894     C
C13   0.6483183 0.61668587 0.15365401     C
C14   0.7369144 0.57756376 0.16674964     C
C15   0.8393166 0.86640257 0.19795983     C
C16   0.75471884 0.48503494 0.1607413     C
N17   0.62862617 0.70576304 0.15036675     N
N18   0.768267 0.41121915 0.15579754     N
N19   0.9068873 0.4942782 0.22788838     N
N20   0.962486 0.6467636 0.20730698     N
N21   0.68393517 0.857981 0.13284351     N
N22   0.5784154 0.5634507 0.14140278     N
N23   0.8261368 0.9394451 0.2050535     N
H24   0.1648425 0.26627314 0.12687247     H
H25   0.44819096 0.34110007 0.19269153     H
H26   0.60249925 0.09014791 0.26476103     H
H27   0.15841915 0.09906197 0.18484154     H
H28   0.57520664 0.30423793 0.30624536     H
H29   0.66261566 0.22398035 0.27694532     H
H30   0.63356876 0.32459277 0.18581985     H
C31   0.307176 0.37018663 0.111450285     C
C32   0.45202938 0.26757082 0.20408103     C
C33   0.5296527 0.2197215 0.23596571     C
C34   0.538355 0.12581605 0.24765475     C
C35   0.4684455 0.07851835 0.23144749     C
C36   0.38261086 0.12421688 0.211055     C
C37   0.3793664 0.2214814 0.18938966     C
C38   0.3029543 0.27149978 0.15370063     C
C39   0.22412895 0.22717625 0.15277067     C
C40   0.22136748 0.13226771 0.18428396     C
C41   0.2992016 0.0800173 0.21221323     C
C42   0.2853547 0.98100704 0.24865411     C
C43   0.60486674 0.27075902 0.25221273     C
C44   0.49940583 0.99280506 0.21524112     C
N45   0.5287393 0.92599005 0.1998024     N
O46   0.37139115 0.40345457 0.038183454     O
O47   0.25169906 0.42053965 0.15309045     O
O48   0.33537433 0.93101037 0.20266297     O
O49   0.21568225 0.9480953 0.31756997     O
Zn50  0.23370995 0.6416986 0.27511644    Zn
Zn51  0.3537785 0.7136555 0.07779287    Zn
H52   0.04984042 0.71150637 0.67490155     H
H53   0.53948283 0.6440601 0.6787756     H
H54   0.2854527 0.7399539 0.44099662     H
H55   0.30377123 0.6149653 0.9127692     H
H56   0.98882735 0.63170236 0.83907723     H
H57   0.60046077 0.7233405 0.514501     H
H58   0.17661214 0.74996614 0.54665047     H
H59   0.41274393 0.60556746 0.8070424     H
C60   0.17637655 0.5681014 0.06687093     C
C61   0.41278866 0.78696877 0.28682292     C
C62   0.1599396 0.5873456 0.96925265     C
C63   0.42925107 0.76770794 0.38442943     C
C64   0.05850257 0.62625283 0.85417664     C
C65   0.53076303 0.7288446 0.49945137     C
C66   0.07142662 0.5845988 0.9463477     C
C67   0.51780254 0.7704759 0.40728793     C
C68   0.23636858 0.6145008 0.89507365     C
C69   0.3528688 0.7405425 0.45863947     C
C70   0.22580777 0.6422876 0.80021924     C
C71   0.3634579 0.71288294 0.55347914     C
C72   0.13444482 0.6554456 0.78121924     C
C73   0.45483518 0.69977945 0.57244986     C
C74   0.30281135  0.65952 0.7239683     C
C75   0.28648615 0.6957516 0.62973773     C
C76   0.19406664 0.71653146 0.615018     C
C77   0.39525098 0.6388619 0.7386793     C
C78   0.11963026 0.69556326 0.68946326     C
C79   0.46967837 0.65984386 0.66421765     C
I80   0.63292164 0.8482771 0.31830218     I
I81   0.956266 0.5068302 0.035284996     I
O82   0.10846253 0.53728205 0.13881671     O
O83   0.48068753 0.8178033 0.21488313     O
O84   0.25877723 0.58752376 0.07730532     O
O85   0.33037278 0.7675616 0.27639455     O
loop_
_geom_bond_atom_site_label_1
_geom_bond_atom_site_label_2
_geom_bond_distance
_geom_bond_site_symmetry_2
_geom_bond_type
H0  N21  1.03734  .  single
H1  N22  1.04428  .  triple
H2  N22  1.04323  .  single
H3  N19  1.03803  .  single
H4  N19  1.04317  .  single
H5  C8  1.08250  .  aromatic
H6  N21  1.04239  .  aromatic
C7  C8  1.40114  .  single
C7  C11  1.43235  .  aromatic
C7  C15  1.44519  .  aromatic
C8  H5  1.08250  .  aromatic
C8  C7  1.40114  .  aromatic
C8  N20  1.35289  .  aromatic
C9  C10  1.42843  .  aromatic
C9  N19  1.42944  .  aromatic
C9  N20  1.38258  .  aromatic
C10  C9  1.42843  .  aromatic
C10  C11  1.41212  .  single
C10  C14  1.42910  .  single
C11  C7  1.43235  .  single
C11  C10  1.41212  .  single
C11  C12  1.42928  .  single
C12  C11  1.42928  .  triple
C12  N17  1.38617  .  single
C12  N21  1.43027  .  single
C13  C14  1.41189  .  single
C13  N17  1.36101  .  triple
C13  N22  1.43229  .  single
C14  C10  1.42910  .  single
C14  C13  1.41189  .  single
C14  C16  1.45138  .  aromatic
C15  C7  1.44519  .  aromatic
C15  N23  1.15745  .  single
C16  C14  1.45138  .  aromatic
C16  N18  1.15779  .  aromatic
N17  C12  1.38617  .  aromatic
N17  C13  1.36101  .  aromatic
N18  C16  1.15779  .  aromatic
N19  H3  1.03803  .  aromatic
N19  H4  1.04317  .  aromatic
N19  C9  1.42944  .  aromatic
N20  C8  1.35289  .  single
N20  C9  1.38258  .  single
N21  H0  1.03734  .  single
N21  H6  1.04239  .  single
N21  C12  1.43027  .  triple
N22  H1  1.04428  .  single
N22  H2  1.04323  .  single
N22  C13  1.43229  .  single
N23  C15  1.15745  .  single
H24  C39  1.08409  .  aromatic
H25  C32  1.08268  .  aromatic
H26  C34  1.08556  .  aromatic
H27  C40  1.08438  .  double
H28  C43  1.10927  .  single
H29  C43  1.11067  .  single
H30  C43  1.11058  .  aromatic
C31  C38  1.44230  .  double
C31  O46  1.29973  .  single
C31  O47  1.29533  .  single
C32  H25  1.08268  .  aromatic
C32  C33  1.39012  .  aromatic
C32  C37  1.41218  .  aromatic
C33  C32  1.39012  .  aromatic
C33  C34  1.39155  .  triple
C33  C43  1.50090  .  single
C34  H26  1.08556  .  aromatic
C34  C33  1.39155  .  single
C34  C35  1.40184  .  aromatic
C35  C34  1.40184  .  aromatic
C35  C36  1.43232  .  single
C36  C35  1.43232  .  single
C36  C37  1.41894  .  single
C36  C41  1.43650  .  single
C37  C32  1.41218  .  single
C37  C36  1.41894  .  single
C37  C38  1.40777  .  aromatic
C38  C31  1.44230  .  aromatic
C38  C37  1.40777  .  aromatic
C38  C39  1.38873  .  double
C39  H24  1.08409  .  single
C39  C38  1.38873  .  single
C39  C40  1.37893  .  aromatic
C40  H27  1.08438  .  double
C40  C39  1.37893  .  single
C40  C41  1.39970  .  single
C41  C36  1.43650  .  aromatic
C41  C40  1.39970  .  aromatic
C42  O48  1.29463  .  triple
C42  O49  1.31096  .  single
C43  H28  1.10927  .  aromatic
C43  H29  1.11067  .  single
C43  H30  1.11058  .  aromatic
C43  C33  1.50090  .  aromatic
C44  N45  1.15670  .  single
N45  C44  1.15670  .  single
O46  C31  1.29973  .  single
O47  C31  1.29533  .  single
O48  C42  1.29463  .  double
O49  C42  1.31096  .  single
Zn50  Zn51  3.07677  .  aromatic
Zn51  Zn50  3.07677  .  aromatic
H52  C78  1.08288  .  aromatic
H53  C79  1.08285  .  aromatic
H54  C69  1.07574  .  aromatic
H55  C68  1.07560  .  aromatic
H57  C65  1.08204  .  single
H58  C76  1.07735  .  aromatic
H59  C77  1.07720  .  aromatic
C60  O82  1.31464  .  aromatic
C60  O84  1.31676  .  aromatic
C61  C63  1.48903  .  aromatic
C61  O83  1.31448  .  single
C61  O85  1.31686  .  aromatic
C62  C66  1.41575  .  single
C62  C68  1.40688  .  aromatic
C63  C61  1.48903  .  single
C63  C67  1.41604  .  single
C63  C69  1.40671  .  double
C64  C66  1.39128  .  double
C64  C72  1.39544  .  single
C65  H57  1.08204  .  single
C65  C67  1.39129  .  single
C65  C73  1.39540  .  single
C66  C62  1.41575  .  single
C66  C64  1.39128  .  single
C67  C63  1.41604  .  aromatic
C67  C65  1.39129  .  aromatic
C67  I80  2.11575  .  aromatic
C68  H55  1.07560  .  aromatic
C68  C62  1.40688  .  aromatic
C68  C70  1.40970  .  aromatic
C69  H54  1.07574  .  aromatic
C69  C63  1.40671  .  single
C69  C71  1.40967  .  aromatic
C70  C68  1.40970  .  aromatic
C70  C72  1.41178  .  aromatic
C70  C74  1.42460  .  aromatic
C71  C69  1.40967  .  aromatic
C71  C73  1.41183  .  single
C71  C75  1.42440  .  aromatic
C72  C64  1.39544  .  aromatic
C72  C70  1.41178  .  aromatic
C72  C78  1.39152  .  aromatic
C73  C65  1.39540  .  aromatic
C73  C71  1.41183  .  aromatic
C73  C79  1.39152  .  single
C74  C70  1.42460  .  aromatic
C74  C75  1.42835  .  single
C74  C77  1.41282  .  single
C75  C71  1.42440  .  aromatic
C75  C74  1.42835  .  single
C75  C76  1.41276  .  single
C76  H58  1.07735  .  double
C76  C75  1.41276  .  single
C76  C78  1.38419  .  single
C77  H59  1.07720  .  single
C77  C74  1.41282  .  single
C77  C79  1.38426  .  single
C78  H52  1.08288  .  single
C78  C72  1.39152  .  single
C78  C76  1.38419  .  single
C79  H53  1.08285  .  single
C79  C73  1.39152  .  single
C79  C77  1.38426  .  single
I80  C67  2.11575  .  single
O82  C60  1.31464  .  single
O83  C61  1.31448  .  single
O84  C60  1.31676  .  single
O85  C61  1.31686  .  single
