# CIF file generated by MOFDiff
# Generation date: 2025-12-26 06:04:26
# Note: This is a computationally generated structure, not experimentally refined
# Space group: P1 (no symmetry operations beyond identity)
# Occupancy values: Set to 1.0 (fully occupied sites assumed)
# Displacement parameters: Estimated U_iso values (0.05 Å²)

data_I
_chemical_name_common  'Zinc-based MOF (computationally generated)'
_cell_length_a  7.80919
_cell_length_b 12.37594
_cell_length_c 14.55532
_cell_angle_alpha 87.11637
_cell_angle_beta  90.41024
_cell_angle_gamma 87.72607
_space_group_name_H-M_alt      'P 1'


loop_
_space_group_symop_operation_xyz
  'x, y, z' 

loop_
_atom_site_label
_atom_site_fract_x
_atom_site_fract_y
_atom_site_fract_z
_atom_site_type_symbol
C0    0.3977912 0.020453133 0.18595886     C
C1    0.38814527 0.005834358 0.5297728     C
C2    0.39609545 0.017690549 0.08454156     C
C3    0.39456713 0.015641987 0.9999704     C
C4    0.39233503 0.013424188 0.90016073     C
C5    0.3904742 0.011645712 0.8157111     C
C6    0.38873133 0.00963108 0.7158712     C
C7    0.38793528 0.007946796 0.6312409     C
O8    0.40024915 0.9372905 0.2384913     O
O9    0.39682493 0.10617454 0.2278347     O
O10   0.24428634 0.007505023 0.48369431     O
O11   0.53248006 0.0020895146 0.48559558     O
H12   0.94495696 0.93711334 0.6026951     H
H13   0.07154763 0.8783975 0.5139579     H
H14   0.84297526 0.86166644 0.51700586     H
H15   0.9393966 0.16398752 0.19903533     H
H16   0.7108574 0.14430314 0.20390722     H
H17   0.83845496 0.08552847 0.11568216     H
C18   0.94590837 0.9178559 0.52906966     C
C19   0.8377428 0.106216885 0.18897173     C
N20   0.9521236 0.99126416 0.38827446     N
N21   0.8347579 0.033954196 0.33076814     N
O22   0.9131578 0.013262248 0.47521865     O
O23   0.8741729 0.01187579 0.24381895     O
Zn24  0.586708 0.028214527 0.36001408    Zn
Zn25  0.20114776 0.005132335 0.3594325    Zn
H26   0.14955343 0.2983165 0.29849315     H
H27   0.9330678 0.70770633 0.47955924     H
H28   0.1403759 0.7599727 0.49471983     H
H29   0.06958412 0.51464206 0.51142097     H
H30   0.26081052 0.5795749 0.54454905     H
H31   0.096300334 0.6791151 0.66306996     H
H32   0.08814934 0.534011 0.6805723     H
H33   0.90519345 0.6105123 0.6317038     H
H34   0.8341492 0.596446 0.45385945     H
H35   0.99368066 0.44606975 0.24662924     H
H36   0.671313 0.7372251 0.39577386     H
H37   0.71665794 0.24988268 0.5673198     H
H38   0.49090505 0.2664167 0.54847383     H
H39   0.73771644 0.44147694 0.6074759     H
H40   0.51077276 0.46446195 0.58733714     H
H41   0.45019743 0.32428876 0.7121567     H
H42   0.5732062 0.43253344 0.7534927     H
H43   0.67841583 0.30365488 0.7332563     H
C44   0.23665151 0.35361105 0.32785887     C
C45   0.27267075 0.64202803 0.36390167     C
C46   0.50741005 0.38458169 0.40621558     C
C47   0.31753403 0.5340823 0.35584188     C
C48   0.480255 0.49555266 0.38919592     C
C49   0.61370665 0.309315 0.54391974     C
C50   0.61168945 0.40279222 0.60936123     C
C51   0.57609135 0.36296996 0.7081283     C
C52   0.0721716 0.68841624 0.47246101     C
C53   0.11927998 0.5897191 0.53830105     C
C54   0.047479652 0.60463107 0.634321     C
C55   0.36374772 0.82988006 0.34979442     C
C56   0.4287604 0.20072137 0.37270686     C
C57   0.3879843 0.3144772 0.37117377     C
C58   0.4037231 0.7160676 0.36723697     C
C59   0.60797876 0.5695021 0.4072186     C
C60   0.19929014 0.46417516 0.32025272     C
C61   0.5713041 0.67983115 0.38886425     C
O62   0.10150898 0.670804 0.37770304     O
O63   0.7678559 0.5332196 0.43880484     O
O64   0.05688139 0.50617063 0.27170873     O
O65   0.20403484 0.85971373 0.34394363     O
O66   0.5885137 0.17101802 0.37181947     O
O67   0.48653746 0.8971653 0.34087798     O
O68   0.30601108 0.13356647 0.37488502     O
O69   0.6542824 0.34491128 0.45285827     O
loop_
_geom_bond_atom_site_label_1
_geom_bond_atom_site_label_2
_geom_bond_distance
_geom_bond_site_symmetry_2
_geom_bond_type
C0  C2  1.47825  .  double
C0  O9  1.24961  .  single
C1  C7  1.47846  .  single
C1  O10  1.30319  .  triple
C1  O11  1.30203  .  single
C2  C0  1.47825  .  triple
C3  C4  1.45439  .  single
C4  C3  1.45439  .  triple
C4  C5  1.23049  .  double
C5  C4  1.23049  .  double
C5  C6  1.45464  .  single
C6  C5  1.45464  .  single
C6  C7  1.23302  .  triple
C7  C1  1.47846  .  single
C7  C6  1.23302  .  triple
O9  C0  1.24961  .  single
O10  C1  1.30319  .  single
O10  Zn25  1.83931  .  single
O11  C1  1.30203  .  single
O11  Zn24  1.89407  .  single
H12  C18  1.10948  .  single
H14  C18  1.10235  .  single
H15  C19  1.10305  .  single
H16  C19  1.10797  .  single
H17  C19  1.10951  .  single
C18  H12  1.10948  .  single
C18  H14  1.10235  .  single
C19  H15  1.10305  .  single
C19  H16  1.10797  .  single
C19  H17  1.10951  .  single
C19  O23  1.39930  .  single
N21  O23  1.34342  .  single
N21  Zn24  1.98952  .  single
O23  C19  1.39930  .  single
O23  N21  1.34342  .  single
Zn24  O11  1.89407  .  single
Zn24  N21  1.98952  .  aromatic
Zn24  Zn25  3.03569  .  aromatic
Zn24  O66  1.78484  .  single
Zn25  O10  1.83931  .  single
Zn25  Zn24  3.03569  .  aromatic
Zn25  O68  1.83964  .  single
H26  C44  1.08435  .  single
H28  C52  1.11208  .  single
H29  C53  1.10906  .  single
H30  C53  1.10995  .  single
H31  C54  1.11113  .  aromatic
H32  C54  1.11069  .  aromatic
H34  O63  0.98797  .  single
H36  C61  1.08382  .  aromatic
H37  C49  1.10784  .  aromatic
H38  C49  1.11520  .  single
H39  C50  1.11131  .  single
H40  C50  1.10922  .  single
H41  C51  1.11108  .  single
H42  C51  1.11065  .  single
H43  C51  1.11059  .  single
C44  H26  1.08435  .  aromatic
C44  C57  1.39350  .  aromatic
C44  C60  1.38648  .  single
C45  C47  1.37856  .  single
C45  C58  1.40269  .  single
C45  O62  1.38818  .  single
C46  C48  1.39082  .  single
C46  C57  1.40875  .  single
C46  O69  1.38855  .  single
C47  C45  1.37856  .  double
C47  C48  1.41336  .  single
C47  C60  1.40397  .  double
C48  C46  1.39082  .  single
C48  C47  1.41336  .  single
C48  C59  1.41212  .  single
C49  H37  1.10784  .  single
C49  H38  1.11520  .  single
C49  C50  1.53477  .  aromatic
C49  O69  1.41760  .  aromatic
C50  H39  1.11131  .  single
C50  H40  1.10922  .  single
C50  C49  1.53477  .  single
C50  C51  1.52713  .  single
C51  H41  1.11108  .  aromatic
C51  H42  1.11065  .  aromatic
C51  H43  1.11059  .  single
C51  C50  1.52713  .  single
C52  H28  1.11208  .  single
C52  C53  1.54506  .  single
C52  O62  1.42586  .  single
C53  H29  1.10906  .  single
C53  H30  1.10995  .  aromatic
C53  C52  1.54506  .  aromatic
C53  C54  1.52666  .  aromatic
C54  H31  1.11113  .  single
C54  H32  1.11069  .  single
C54  C53  1.52666  .  aromatic
C55  C58  1.44010  .  single
C55  O65  1.28760  .  single
C55  O67  1.29769  .  single
C56  C57  1.43006  .  single
C56  O66  1.28685  .  single
C56  O68  1.29291  .  single
C57  C44  1.39350  .  aromatic
C57  C46  1.40875  .  aromatic
C57  C56  1.43006  .  single
C58  C45  1.40269  .  single
C58  C55  1.44010  .  single
C58  C61  1.39505  .  single
C59  C48  1.41212  .  single
C59  C61  1.39605  .  single
C59  O63  1.37779  .  single
C60  C44  1.38648  .  double
C60  C47  1.40397  .  single
C60  O64  1.38277  .  single
C61  H36  1.08382  .  single
C61  C58  1.39505  .  single
C61  C59  1.39605  .  single
O62  C45  1.38818  .  single
O62  C52  1.42586  .  single
O63  H34  0.98797  .  single
O63  C59  1.37779  .  single
O64  C60  1.38277  .  single
O65  C55  1.28760  .  single
O66  Zn24  1.78484  .  single
O66  C56  1.28685  .  single
O67  C55  1.29769  .  single
O68  Zn25  1.83964  .  single
O68  C56  1.29291  .  single
O69  C46  1.38855  .  single
O69  C49  1.41760  .  single
