# CIF file generated by MOFDiff
# Generation date: 2025-12-26 06:04:26
# Note: This is a computationally generated structure, not experimentally refined
# Space group: P1 (no symmetry operations beyond identity)
# Occupancy values: Set to 1.0 (fully occupied sites assumed)
# Displacement parameters: Estimated U_iso values (0.05 Å²)

data_I
_chemical_name_common  'Copper-based MOF (computationally generated)'
_cell_length_a 17.12603
_cell_length_b 17.06554
_cell_length_c 22.18207
_cell_angle_alpha 96.40047
_cell_angle_beta  97.08365
_cell_angle_gamma 70.62358
_space_group_name_H-M_alt      'P 1'


loop_
_space_group_symop_operation_xyz
  'x, y, z' 

loop_
_atom_site_label
_atom_site_fract_x
_atom_site_fract_y
_atom_site_fract_z
_atom_site_type_symbol
H0    0.051933307 0.4067535 0.95304614     H
H1    0.017535117 0.51194084 0.1604505     H
H2    0.04318564 0.6046892 0.24686047     H
H3    0.06488826 0.49366626 0.04488601     H
H4    0.2814969 0.3976937 0.1504987     H
H5    0.30812892 0.48715666 0.23962285     H
H6    0.15478131 0.29119277 0.19103053     H
H7    0.251669 0.277634 0.172021     H
H8    0.15391093 0.14628373 0.080959976     H
H9    0.24795324 0.14585973 0.064296074     H
C10   0.12369722 0.24160682 0.9343225     C
C11   0.11705226 0.28960848 0.9937304     C
C12   0.08129582 0.37655988 0.9942548     C
C13   0.08886895 0.42656645 0.046619322     C
C14   0.13160583 0.39086443 0.099715136     C
C15   0.1607379 0.30332676 0.10194981     C
C16   0.15375529 0.25247416 0.04846259     C
C17   0.080932334 0.5076617 0.17680006     C
C18   0.09584018 0.56107724 0.2254502     C
C19   0.24458228 0.49447083 0.22158206     C
C20   0.22948223 0.44238332 0.17189947     C
C21   0.14763983 0.44668308 0.15104277     C
C22   0.17778097 0.55284643 0.24946707     C
C23   0.19155616 0.5917915 0.3100249     C
N24   0.19631155 0.26513872 0.15779582     N
N25   0.18462628 0.163508 0.049383163     N
O26   0.25089145 0.5505413 0.34578758     O
O27   0.13408098 0.65552014 0.32907894     O
O28   0.07653868 0.27598265 0.88908416     O
O29   0.18393001 0.17429952 0.92734504     O
H30   0.34056386 0.05543006 0.27109322     H
H31   0.25390866 0.43831462 0.46756062     H
H32   0.22205743 0.39589617 0.5254545     H
H33   0.34341386 0.5015461 0.5943094     H
H34   0.2998935 0.44464684 0.62901396     H
H35   0.4998333 0.33275893 0.63735634     H
H36   0.56233275 0.21272206 0.5737699     H
H37   0.57101977 0.036693312 0.37342426     H
H38   0.4767553 0.9201521 0.2888918     H
H39   0.56455153 0.9446075 0.29340264     H
H40   0.27161127 0.17867689 0.33158615     H
C41   0.26018324 0.31219563 0.3973792     C
C42   0.38389552 0.2897197 0.478708     C
C43   0.51005507 0.17264296 0.456222     C
C44   0.4674613 0.14373755 0.40406534     C
C45   0.3829543 0.18770115 0.38906953     C
C46   0.3441921 0.26472834 0.4217649     C
C47   0.50618535 0.07128091 0.36646992     C
C48   0.46125966 0.039928976 0.318321     C
C49   0.37667394 0.08011636 0.3070987     C
C50   0.3379152 0.15236096 0.34183046     C
C51   0.34729108 0.36093116 0.5204805     C
C52   0.59936076 0.13183714 0.4720143     C
C53   0.3910776 0.37687436 0.5759858     C
C54   0.46800342 0.3226212 0.5933341     C
C55   0.5044208 0.25463495 0.5550089     C
C56   0.4665099 0.23945911 0.49615857     C
N57   0.26587552 0.4184853 0.5111307     N
N58   0.3559409 0.4476292 0.6170188     N
N59   0.5006241 0.9666023 0.2807364     N
O60   0.24374989 0.32622793 0.33913767     O
O61   0.62735754 0.050992034 0.4693127     O
O62   0.2027863 0.32636535 0.4335084     O
O63   0.645332 0.17822728 0.49366432     O
Cu64  0.15860163 0.52058065 0.37194362    Cu
Cu65  0.29214862 0.4533287 0.4579652    Cu
Cu66  0.59924734 0.9682161 0.43428573    Cu
Cu67  0.7508391 0.9096027 0.5055923    Cu
H68   0.12796688 0.2919607 0.49873686     H
H69   0.2951358 0.40975428 0.69723856     H
H70   0.41915786 0.5797383 0.66278017     H
H71   0.32509905 0.61599326 0.5690284     H
H72   0.2187983 0.5467971 0.53831124     H
H73   0.87105393 0.15329224 0.5383077     H
H74   0.024125341 0.08656353 0.55002916     H
H75   0.14403918 0.46043676 0.7546486     H
H76   0.1640291 0.55919546 0.7626659     H
H77   0.062539704 0.5571726 0.7705798     H
H78   0.12650594 0.5801163 0.6636104     H
H79   0.028618695 0.57454187 0.6678231     H
H80   0.11638199 0.17312452 0.57008123     H
H81   0.41311124 0.52274674 0.76878893     H
H82   0.47963366 0.44599473 0.72747606     H
H83   0.90152794 0.39472443 0.56425685     H
H84   0.8103905 0.3069345 0.5459735     H
C85   0.011714642 0.40706667 0.6773314     C
C86   0.23693359 0.36934283 0.50330365     C
C87   0.09526718 0.5380602 0.6770835     C
C88   0.118129745 0.5271805 0.74519396     C
C89   0.9976047 0.15378885 0.553345     C
C90   0.049657602 0.20296092 0.56453824     C
C91   0.015590783 0.2902665 0.569205     C
C92   0.9288534 0.32755476 0.5615344     C
C93   0.87708324 0.27809098 0.5507759     C
C94   0.9113506 0.19135639 0.5466662     C
C95   0.12603426 0.33518526 0.5387621     C
C96   0.18063624 0.38095108 0.5483057     C
C97   0.18054135 0.43716568 0.5997827     C
C98   0.11588164 0.45578006 0.6372721     C
C99   0.06651979 0.4019178 0.63133794     C
C100  0.07102113 0.3422653 0.5811515     C
C101  0.3018158 0.4544442 0.6691731     C
C102  0.36393306 0.49139616 0.68607515     C
C103  0.37176508 0.5503305 0.6499721     C
C104  0.3186851 0.57088715 0.5970138     C
C105  0.25783214 0.5326769 0.5799151     C
C106  0.24820146 0.47495863 0.616013     C
N107  0.41874927 0.4687253 0.73993456     N
O108  0.0011759227 0.34085852 0.6929107     O
O109  0.20945878 0.37217465 0.44687325     O
O110  0.9738573 0.47897884 0.7009306     O
O111  0.31289098 0.35845375 0.5213346     O
Cu112 0.973375 0.37697855 0.78908026    Cu
Cu113 0.090094246 0.21128032 0.7566485    Cu
C114  0.11998987 0.6184949 0.52516484     C
C115  0.0643785 0.8095459 0.4822836     C
C116  0.0621562 0.6578029 0.46970126     C
C117  0.012503982 0.7506616 0.48192185     C
C118  0.9715139 0.6451905 0.37266243     C
C119  0.8752817 0.7225904 0.4629717     C
C120  0.9272395 0.631753 0.47302118     C
C121  0.94531983 0.7406445 0.37574524     C
C122  0.0029523373 0.6104376 0.43687454     C
C123  0.927765 0.7723238 0.44148934     C
C124  0.8754466 0.8611037 0.44597346     C
C125  0.041494608 0.5191914 0.4253889     C
H126  0.09471834 0.57693005 0.54592216     H
H127  0.18206453 0.58016866 0.5108532     H
H128  0.13141763 0.6668261 0.55962497     H
H129  0.048367143 0.8435979 0.44039536     H
H130  0.05164063 0.8567757 0.5216843     H
H131  0.13208091 0.77533764 0.48823708     H
H132  0.10150349 0.65788347 0.4369271     H
H133  0.99690473 0.75495034 0.5268032     H
H134  0.017553568 0.61722875 0.33977085     H
H135  0.8447661 0.7533421 0.503772     H
H136  0.9950905 0.76120585 0.36226246     H
H137  0.94708055 0.62367994 0.5219474     H
H138  0.8897916 0.59020627 0.4569673     H
H139  0.88901746 0.7654119 0.34411114     H
H140  0.8269822 0.7206518 0.42523777     H
H141  0.9148029 0.6283314 0.35691833     H
O142  0.7997057 0.8762625 0.42145318     O
O143  0.99692714 0.48285148 0.38863224     O
O144  0.90196395 0.91029406 0.48571673     O
O145  0.12086773 0.4886005 0.43958384     O
H146  0.82385767 0.18721265 0.6317764     H
H147  0.98369765 0.046412922 0.60277617     H
H148  0.9238738 0.061874196 0.5061977     H
H149  0.8330072 0.08788822 0.46461058     H
H150  0.63675934 0.14001848 0.6036538     H
H151  0.72588265 0.115472674 0.6468319     H
C152  0.70107836 0.05546594 0.5100976     C
C153  0.9803048 0.15146999 0.6712284     C
C154  0.74017125 0.10234257 0.55669636     C
C155  0.82102793 0.0959715 0.55480427     C
C156  0.94383067 0.10370856 0.6240729     C
C157  0.86261415 0.13381416 0.60618186     C
N158  0.8648786 0.05548977 0.502313     N
N159  0.6956821 0.1461408 0.60799927     N
O160  0.74773574 0.9825783 0.4910249     O
O161  0.62203145 0.08495269 0.49199748     O
O162  0.05893314 0.122118026 0.6895701     O
O163  0.9332286 0.22449248 0.69054264     O
C164  0.321229 0.63593835 0.38819233     C
C165  0.44951442 0.6797188 0.4338219     C
C166  0.3806297 0.6563929 0.40802965     C
C167  0.5062762 0.704145 0.45417404     C
C168  0.25197476 0.6066937 0.37210682     C
C169  0.56830996 0.74296707 0.4722554     C
O170  0.63855225 0.7112873 0.45138785     O
O171  0.5432948 0.8178697 0.4927394     O
O172  0.2676098 0.52972364 0.3568507     O
O173  0.1829356 0.6505805 0.39069644     O
loop_
_geom_bond_atom_site_label_1
_geom_bond_atom_site_label_2
_geom_bond_distance
_geom_bond_site_symmetry_2
_geom_bond_type
H0  C12  1.08335  .  double
H1  C17  1.08253  .  single
H2  C18  1.08358  .  single
H3  C13  1.08409  .  single
H4  C20  1.08319  .  aromatic
H5  C19  1.08338  .  aromatic
H6  N24  1.04568  .  single
H7  N24  1.04365  .  aromatic
H8  N25  1.04552  .  aromatic
H9  N25  1.04563  .  single
C10  C11  1.46800  .  aromatic
C10  O28  1.27294  .  aromatic
C10  O29  1.27316  .  single
C11  C10  1.46800  .  single
C11  C12  1.40427  .  single
C12  H0  1.08335  .  single
C12  C11  1.40427  .  aromatic
C13  H3  1.08409  .  single
C13  C14  1.39483  .  aromatic
C14  C13  1.39483  .  single
C14  C15  1.41383  .  aromatic
C14  C21  1.46074  .  aromatic
C15  C14  1.41383  .  single
C15  C16  1.40692  .  single
C15  N24  1.43557  .  single
C16  C15  1.40692  .  double
C16  N25  1.43411  .  single
C17  H1  1.08253  .  double
C17  C18  1.38848  .  single
C17  C21  1.39788  .  single
C18  H2  1.08358  .  single
C18  C17  1.38848  .  aromatic
C18  C22  1.40512  .  aromatic
C19  H5  1.08338  .  single
C19  C20  1.39118  .  aromatic
C19  C22  1.40170  .  aromatic
C20  H4  1.08319  .  single
C20  C19  1.39118  .  aromatic
C20  C21  1.40121  .  aromatic
C21  C14  1.46074  .  single
C21  C17  1.39788  .  single
C21  C20  1.40121  .  single
C22  C18  1.40512  .  single
C22  C19  1.40170  .  single
C22  C23  1.45899  .  aromatic
C23  C22  1.45899  .  aromatic
C23  O26  1.26827  .  single
C23  O27  1.27284  .  aromatic
N24  H6  1.04568  .  aromatic
N24  H7  1.04365  .  single
N24  C15  1.43557  .  aromatic
N25  H8  1.04552  .  aromatic
N25  H9  1.04563  .  single
N25  C16  1.43411  .  single
O26  C23  1.26827  .  single
O27  C23  1.27284  .  double
O27  Cu64  2.47617  .  single
O28  C10  1.27294  .  double
O29  C10  1.27316  .  single
H30  C49  1.08344  .  single
H31  N57  1.03375  .  single
H32  N57  1.04440  .  single
H33  N58  1.04504  .  single
H34  N58  1.04554  .  aromatic
H35  C54  1.08364  .  aromatic
H36  C55  1.07811  .  aromatic
H37  C47  1.07157  .  aromatic
H38  N59  1.04567  .  single
H39  N59  1.04567  .  single
H40  C50  1.07864  .  aromatic
C41  C46  1.46669  .  aromatic
C41  O60  1.31916  .  aromatic
C41  O62  1.28855  .  aromatic
C42  C46  1.44920  .  aromatic
C42  C51  1.45435  .  single
C42  C56  1.42163  .  aromatic
C43  C44  1.42033  .  aromatic
C43  C52  1.47051  .  aromatic
C43  C56  1.41936  .  aromatic
C44  C43  1.42033  .  aromatic
C44  C45  1.40874  .  aromatic
C44  C47  1.42359  .  single
C45  C44  1.40874  .  aromatic
C45  C46  1.42189  .  single
C45  C50  1.42307  .  single
C46  C41  1.46669  .  single
C46  C42  1.44920  .  single
C46  C45  1.42189  .  single
C47  H37  1.07157  .  single
C47  C44  1.42359  .  double
C47  C48  1.40072  .  single
C48  C47  1.40072  .  double
C48  C49  1.38590  .  single
C49  H30  1.08344  .  single
C49  C48  1.38590  .  single
C49  C50  1.38763  .  single
C50  H40  1.07864  .  single
C50  C45  1.42307  .  single
C50  C49  1.38763  .  aromatic
C51  C42  1.45435  .  aromatic
C51  C53  1.40899  .  aromatic
C51  N57  1.42029  .  aromatic
C52  C43  1.47051  .  single
C52  O61  1.29872  .  single
C52  O63  1.30874  .  aromatic
C53  C51  1.40899  .  aromatic
C53  C54  1.37330  .  aromatic
C53  N58  1.43404  .  aromatic
C54  H35  1.08364  .  aromatic
C54  C53  1.37330  .  single
C54  C55  1.37424  .  aromatic
C55  H36  1.07811  .  aromatic
C55  C54  1.37424  .  aromatic
C55  C56  1.42123  .  aromatic
C56  C42  1.42163  .  aromatic
C56  C43  1.41936  .  aromatic
C56  C55  1.42123  .  single
N57  H31  1.03375  .  aromatic
N57  H32  1.04440  .  single
N57  C51  1.42029  .  single
N58  H33  1.04504  .  single
N58  H34  1.04554  .  single
N58  C53  1.43404  .  single
N59  H38  1.04567  .  single
N59  H39  1.04567  .  double
O60  C41  1.31916  .  single
O61  C52  1.29872  .  single
O62  C41  1.28855  .  single
O63  C52  1.30874  .  single
Cu64  O27  2.47617  .  single
Cu64  O172  1.99518  .  aromatic
Cu64  O173  2.37350  .  single
Cu65  O111  2.17397  .  single
Cu67  O142  2.08327  .  aromatic
Cu67  O160  1.30374  .  aromatic
H68  C95  1.08560  .  aromatic
H69  C101  1.07871  .  aromatic
H70  C103  1.08304  .  aromatic
H71  C104  1.08140  .  single
H72  C105  1.07105  .  aromatic
H73  C94  1.08243  .  single
H75  C88  1.11049  .  single
H76  C88  1.10871  .  aromatic
H77  C88  1.10908  .  single
H78  C87  1.11026  .  single
H79  C87  1.10987  .  single
H80  C90  1.08324  .  single
H81  N107  1.04571  .  single
H82  N107  1.04540  .  aromatic
H83  C92  1.08269  .  double
H84  C93  1.08021  .  single
C85  C99  1.44603  .  single
C85  O108  1.29088  .  single
C86  C96  1.42543  .  single
C86  O109  1.28208  .  single
C86  O111  1.27065  .  single
C87  H78  1.11026  .  single
C87  H79  1.10987  .  single
C87  C88  1.52931  .  double
C87  C98  1.53220  .  single
C88  H75  1.11049  .  aromatic
C88  H76  1.10871  .  aromatic
C88  H77  1.10908  .  aromatic
C88  C87  1.52931  .  single
C89  C94  1.39781  .  single
C90  H80  1.08324  .  single
C90  C91  1.40523  .  aromatic
C91  C90  1.40523  .  aromatic
C91  C100  1.48437  .  single
C92  H83  1.08269  .  single
C92  C93  1.39825  .  aromatic
C93  H84  1.08021  .  single
C93  C92  1.39825  .  aromatic
C93  C94  1.39655  .  aromatic
C94  H73  1.08243  .  aromatic
C94  C89  1.39781  .  aromatic
C94  C93  1.39655  .  aromatic
C95  H68  1.08560  .  single
C95  C96  1.38859  .  aromatic
C95  C100  1.37986  .  single
C96  C86  1.42543  .  aromatic
C96  C95  1.38859  .  single
C96  C97  1.40690  .  aromatic
C97  C96  1.40690  .  single
C97  C98  1.39768  .  single
C97  C106  1.49316  .  single
C98  C87  1.53220  .  single
C98  C97  1.39768  .  single
C98  C99  1.42761  .  aromatic
C99  C85  1.44603  .  double
C99  C98  1.42761  .  single
C99  C100  1.41350  .  single
C100  C91  1.48437  .  single
C100  C95  1.37986  .  aromatic
C100  C99  1.41350  .  single
C101  H69  1.07871  .  single
C101  C102  1.40143  .  single
C101  C106  1.40281  .  single
C102  C101  1.40143  .  double
C102  C103  1.40230  .  single
C102  N107  1.42960  .  single
C103  H70  1.08304  .  single
C103  C102  1.40230  .  single
C103  C104  1.39510  .  single
C104  H71  1.08140  .  single
C104  C103  1.39510  .  single
C104  C105  1.39767  .  single
C105  H72  1.07105  .  single
C105  C104  1.39767  .  single
C105  C106  1.39814  .  single
C106  C97  1.49316  .  single
C106  C101  1.40281  .  single
C106  C105  1.39814  .  single
N107  H81  1.04571  .  single
N107  H82  1.04540  .  single
N107  C102  1.42960  .  single
O108  C85  1.29088  .  single
O109  C86  1.28208  .  single
O111  Cu65  2.17397  .  single
O111  C86  1.27065  .  single
Cu113  O162  2.15690  .  single
C114  C116  1.54506  .  single
C114  H126  1.10822  .  single
C114  H127  1.11099  .  single
C114  H128  1.11020  .  single
C115  C117  1.54530  .  single
C115  H129  1.10817  .  single
C115  H130  1.11103  .  single
C115  H131  1.11036  .  single
C116  C114  1.54506  .  single
C116  C117  1.54101  .  single
C116  C122  1.56274  .  single
C116  H132  1.05085  .  single
C117  C115  1.54530  .  single
C117  C116  1.54101  .  single
C118  C121  1.53536  .  single
C118  H141  1.10788  .  single
C119  C120  1.53538  .  single
C119  C123  1.56758  .  single
C119  H135  1.09380  .  single
C119  H140  1.10776  .  single
C120  C119  1.53538  .  single
C120  H137  1.10617  .  single
C120  H138  1.10902  .  single
C121  C118  1.53536  .  double
C121  C123  1.52772  .  single
C121  H136  1.10627  .  single
C121  H139  1.10888  .  single
C122  C116  1.56274  .  single
C122  C125  1.48202  .  single
C123  C119  1.56758  .  single
C123  C121  1.52772  .  single
C123  C124  1.48182  .  double
C124  C123  1.48182  .  single
C124  O142  1.29616  .  double
C124  O144  1.29513  .  single
C125  C122  1.48202  .  single
C125  O145  1.29603  .  single
H126  C114  1.10822  .  single
H127  C114  1.11099  .  single
H128  C114  1.11020  .  single
H129  C115  1.10817  .  single
H130  C115  1.11103  .  single
H131  C115  1.11036  .  double
H132  C116  1.05085  .  single
H135  C119  1.09380  .  single
H136  C121  1.10627  .  double
H137  C120  1.10617  .  single
H138  C120  1.10902  .  double
H139  C121  1.10888  .  single
H140  C119  1.10776  .  single
H141  C118  1.10788  .  single
O142  Cu67  2.08327  .  single
O142  C124  1.29616  .  single
O144  C124  1.29513  .  triple
O145  C125  1.29603  .  triple
H146  C157  1.08146  .  double
H147  C156  1.08581  .  single
H148  N158  1.04383  .  single
H149  N158  1.04562  .  double
H150  N159  1.04031  .  single
H151  N159  1.04615  .  single
C152  C154  1.46867  .  triple
C152  O161  1.30616  .  triple
C153  C156  1.46126  .  double
C153  O163  1.29846  .  single
C154  C152  1.46867  .  single
C154  C155  1.35814  .  single
C154  N159  1.44242  .  single
C155  C154  1.35814  .  single
C155  C157  1.47107  .  single
C155  N158  1.44536  .  single
C156  H147  1.08581  .  single
C156  C153  1.46126  .  single
C156  C157  1.33837  .  single
C157  H146  1.08146  .  single
C157  C155  1.47107  .  single
C157  C156  1.33837  .  single
N158  H148  1.04383  .  single
N158  H149  1.04562  .  single
N158  C155  1.44536  .  single
N159  H150  1.04031  .  single
N159  H151  1.04615  .  single
N159  C154  1.44242  .  single
O160  Cu67  1.30374  .  single
O161  C152  1.30616  .  single
O162  Cu113  2.15690  .  single
O163  C153  1.29846  .  single
C164  C166  1.20056  .  single
C164  C168  1.42541  .  single
C165  C166  1.40424  .  single
C165  C167  1.20052  .  single
C166  C164  1.20056  .  single
C166  C165  1.40424  .  single
C167  C165  1.20052  .  single
C167  C169  1.42519  .  single
C168  C164  1.42541  .  single
C168  O172  1.26549  .  single
C168  O173  1.26205  .  single
C169  C167  1.42519  .  single
C169  O170  1.26637  .  single
C169  O171  1.25661  .  single
O170  C169  1.26637  .  single
O171  C169  1.25661  .  single
O172  Cu64  1.99518  .  single
O172  C168  1.26549  .  single
O173  Cu64  2.37350  .  single
O173  C168  1.26205  .  single
