data_I
_chemical_name_common  '/home/sibivarshan_m7/MOFDiff/MOFDiff/nh3_all_samples/cif/sample_1'
_cell_length_a 12.38530
_cell_length_b 13.12473
_cell_length_c 14.67147
_cell_angle_alpha 88.86595
_cell_angle_beta  82.30304
_cell_angle_gamma 83.92123
_space_group_name_H-M_alt      'P 1'


loop_
_space_group_symop_operation_xyz
  'x, y, z' 

loop_
_atom_site_label
_atom_site_fract_x
_atom_site_fract_y
_atom_site_fract_z
_atom_site_type_symbol
Zn0   0.41934115 0.4996651 0.09944121    Zn
Zn1   0.65017277 0.38860673 0.061152477    Zn
H2    0.011741206 0.2566329 0.010175183     H
H3    0.051186815 0.6363077 0.14880735     H
H4    0.24276881 0.6610943 0.16639072     H
H5    0.34315026 0.62999433 0.07165203     H
H6    0.2224012 0.709839 0.054176565     H
H7    0.84756905 0.18271013 0.062368587     H
H8    0.7229223 0.25945893 0.09154234     H
H9    0.7957728 0.26922715 0.9788781     H
H10   0.2932992 0.28252053 0.9358555     H
H11   0.20447348 0.22531214 0.023224093     H
H12   0.1590047 0.27442142 0.91868174     H
H13   0.77098316 0.6074579 0.22803304     H
H14   0.904561 0.6054107 0.25422582     H
H15   0.86584216 0.6660622 0.1501793     H
C16   0.98301494 0.3271195 0.04651537     C
C17   0.08092264 0.5651815 0.11362141     C
C18   0.87117386 0.34119806 0.08050445     C
C19   0.19220906 0.55254173 0.07699339     C
C20   0.8963109 0.50158393 0.14359541     C
C21   0.16893788 0.3885466 0.020365892     C
C22   0.010182367 0.48981848 0.10526817     C
C23   0.054638326 0.40106338 0.057458248     C
C24   0.2549043 0.6418501 0.092089936     C
C25   0.80445313 0.26002324 0.052907694     C
C26   0.21052997 0.2884513 0.9722135     C
C27   0.8558357 0.5991394 0.19673708     C
N28   0.23756449 0.4644133 0.030474653     N
N29   0.8273101 0.4267812 0.1311051     N
C30   0.56594074 0.44235912 0.9085463     C
C31   0.5544305 0.44321185 0.8076177     C
C32   0.5449837 0.4438629 0.72352415     C
C33   0.5343759 0.44417143 0.62294215     C
C34   0.52586085 0.44417983 0.5383039     C
C35   0.5155892 0.44430563 0.43758884     C
C36   0.5067823 0.4443798 0.3533224     C
C37   0.49724823 0.44361004 0.25204346     C
O38   0.5281903 0.37398475 0.9635275     O
O39   0.57162803 0.39518178 0.19507812     O
O40   0.4148445 0.49032724 0.21910402     O
O41   0.6131452 0.5105019 0.944579     O
H42   0.4458102 0.7909822 0.03897044     H
H43   0.32840022 0.9432076 0.102079354     H
H44   0.6245712 0.14762998 0.01769632     H
H45   0.7401152 0.9960279 0.9549522     H
C46   0.6720271 0.7637516 0.0042578992     C
C47   0.6426531 0.93909454 0.07638564     C
C48   0.59936595 0.8539288 0.04524897     C
C49   0.4840495 0.8555593 0.059758153     C
C50   0.41642046 0.94328016 0.0961715     C
C51   0.46173152 0.032164216 0.11969148     C
C52   0.5763118 0.025304675 0.11247811     C
C53   0.65688723 0.09589338 0.07087526     C
C54   0.7298272 0.0007611513 0.03121166     C
C55   0.39026707 0.12568367 0.15537797     C
N56   0.7023035 0.14972174 0.14098173     N
N57   0.8336039 0.9800143 0.06928003     N
O58   0.768181 0.778555 0.96186054     O
O59   0.636807 0.67384416 0.015481068     O
O60   0.29497764 0.11283636 0.20065185     O
O61   0.42738077 0.21475637 0.14256348     O
O62   0.7155848 0.24628747 0.12982862     O
O63   0.727941 0.10272741 0.2152952     O
O64   0.91283345 0.036168575 0.043709755     O
O65   0.84990776 0.9029979 0.12485218     O
loop_
_geom_bond_atom_site_label_1
_geom_bond_atom_site_label_2
_geom_bond_distance
_geom_bond_site_symmetry_2
_ccdc_geom_bond_type
Zn0   Zn1    3.05504       .     S
Zn0   N28    2.67504       .     S
Zn0   O38    2.73016   1_554     S
Zn0   O40    1.75131       .     S
Zn0   O59    3.78174       .     S
Zn0   O60    5.57662       .     S
Zn1   Zn0    3.05504       .     S
Zn1   N29    2.64080       .     S
Zn1   O39    2.07159       .     S
Zn1   O41    2.37515   1_554     S
Zn1   O58    5.58307   1_554     S
Zn1   O61    3.81965       .     A
H2    C16    1.07967   1_455     A
H3    C17    1.08116       .     A
H4    C24    1.11071       .     A
H5    C24    1.08936       .     A
H6    C24    1.10995       .     A
H7    C25    1.11067       .     A
H8    C25    1.09046       .     A
H9    C25    1.10867   1_556     A
H10   C26    1.08616       .     A
H11   C26    1.10726   1_554     A
H12   C26    1.10583       .     S
H13   C27    1.08426       .     S
H14   C27    1.10994       .     S
H15   C27    1.10908       .     S
C16   H2     1.07967   1_655     S
C16   C18    1.40213       .     S
C16   C23    1.40755   1_655     S
C17   H3     1.08116       .     S
C17   C19    1.40455       .     S
C17   C22    1.40645       .     S
C18   C16    1.40213       .     S
C18   C25    1.50832       .     S
C18   N29    1.37975       .     S
C19   C17    1.40455       .     S
C19   C24    1.50833       .     S
C19   N28    1.38209       .     S
C20   C22    1.44013   1_655     S
C20   C27    1.51574       .     S
C20   N29    1.39805       .     A
C21   C23    1.44052       .     A
C21   C26    1.51204   1_554     A
C21   N28    1.39813       .     A
C22   C17    1.40645       .     A
C22   C20    1.44013   1_455     A
C22   C23    1.39470       .     A
C23   C16    1.40755   1_455     A
C23   C21    1.44052       .     A
C23   C22    1.39470       .     A
C24   H4     1.11071       .     A
C24   H5     1.08936       .     S
C24   H6     1.10995       .     S
C24   C19    1.50833       .     S
C25   H7     1.11067       .     S
C25   H8     1.09046       .     S
C25   H9     1.10867   1_554     S
C25   C18    1.50832       .     S
C26   H10    1.08616       .     S
C26   H11    1.10726   1_556     S
C26   H12    1.10583       .     D
C26   C21    1.51204   1_556     D
C27   H13    1.08426       .     S
C27   H14    1.10994       .     S
C27   H15    1.10908       .     T
C27   C20    1.51574       .     S
N28   Zn0    2.67504       .     T
N28   C19    1.38209       .     S
N28   C21    1.39813       .     T
N29   Zn1    2.64080       .     S
N29   C18    1.37975       .     S
N29   C20    1.39805       .     D
C30   C31    1.50622       .     D
C30   O38    1.27820       .     S
C30   O41    1.27804       .     S
C31   C30    1.50622       .     T
C31   C32    1.25459       .     S
C32   C31    1.25459       .     T
C32   C33    1.49884       .     S
C33   C32    1.49884       .     T
C33   C34    1.26023       .     S
C34   C33    1.26023       .     S
C34   C35    1.49994       .     D
C35   C34    1.49994       .     S
C35   C36    1.25556       .     S
C36   C35    1.25556       .     S
C36   C37    1.50659       .     S
C37   C36    1.50659       .     A
C37   O39    1.28137       .     A
C37   O40    1.28022       .     A
O38   Zn0    2.73016   1_556     S
O38   C30    1.27820       .     S
O39   Zn1    2.07159       .     S
O39   C37    1.28137       .     A
O40   Zn0    1.75131       .     D
O40   C37    1.28022       .     D
O41   Zn1    2.37515   1_556     S
O41   C30    1.27804       .     A
H42   C49    1.08149       .     S
H43   C50    1.08206       .     S
H44   C53    1.11136       .     S
H45   C54    1.11121   1_566     A
C46   C48    1.49331       .     S
C46   O58    1.29950   1_554     D
C46   O59    1.30073       .     D
C47   C48    1.39938       .     D
C47   C52    1.39501   1_565     S
C47   C54    1.49405   1_565     D
C48   C46    1.49331       .     S
C48   C47    1.39938       .     S
C48   C49    1.41346       .     S
C49   H42    1.08149       .     S
C49   C48    1.41346       .     A
C49   C50    1.41872       .     A
C50   H43    1.08206       .     A
C50   C49    1.41872       .     S
C50   C51    1.41470   1_565     S
C51   C50    1.41470   1_545     S
C51   C52    1.40224       .     A
C51   C55    1.49510       .     D
C52   C47    1.39501   1_545     D
C52   C51    1.40224       .     S
C52   C53    1.49568       .     A
C53   H44    1.11136       .     S
C53   C52    1.49568       .     S
C53   C54    1.53712       .     S
C53   N56    1.46334       .     A
C54   H45    1.11121   1_544     S
C54   C47    1.49405   1_545     D
C54   C53    1.53712       .     D
C54   N57    1.46637   1_545     D
C55   C51    1.49510       .     S
C55   O60    1.30008       .     S
C55   O61    1.30203       .     S
N56   C53    1.46334       .     S
N56   O62    1.29956       .     S
N56   O63    1.30177       .     S
N57   C54    1.46637   1_565     S
N57   O64    1.30017   1_565     S
N57   O65    1.30213       .     S
O58   Zn1    5.58307   1_556     S
O58   C46    1.29950   1_556     S
O59   Zn0    3.78174       .     S
O59   C46    1.30073       .     S
O60   Zn0    5.57662       .     S
O60   C55    1.30008       .     S
O61   Zn1    3.81965       .     S
O61   C55    1.30203       .     S
O62   N56    1.29956       .     S
O63   N56    1.30177       .     S
O64   N57    1.30017   1_545     S
O65   N57    1.30213       .     S
