data_I
_chemical_name_common  '/home/sibivarshan_m7/MOFDiff/MOFDiff/nh3_all_samples/cif/sample_8'
_cell_length_a 11.50825
_cell_length_b 17.28413
_cell_length_c 17.60864
_cell_angle_alpha 91.31934
_cell_angle_beta  91.68358
_cell_angle_gamma 89.74011
_space_group_name_H-M_alt      'P 1'


loop_
_space_group_symop_operation_xyz
  'x, y, z' 

loop_
_atom_site_label
_atom_site_fract_x
_atom_site_fract_y
_atom_site_fract_z
_atom_site_type_symbol
C0    0.2125928 0.75112295 0.99543804     C
C1    0.04870258 0.6675343 0.048114184     C
C2    0.13599229 0.71196353 0.01768833     C
C3    0.96896017 0.63291776 0.072616145     C
C4    0.86384064 0.5985808 0.09398894     C
C5    0.3112679 0.79557014 0.97893727     C
O6    0.3395893 0.847539 0.023040652     O
O7    0.39088833 0.7653228 0.9450861     O
O8    0.80558455 0.63595974 0.14542414     O
O9    0.8239014 0.54440904 0.047701474     O
Zn10  0.70716393 0.67985135 0.99449337    Zn
Zn11  0.48046127 0.713991 0.07650915    Zn
C12   0.5519933 0.5525926 0.030330203     C
C13   0.6359145 0.8403956 0.046004403     C
C14    0.60936 0.16458525 0.08306115     C
C15   0.59840006 0.23191744 0.070723206     C
C16   0.73021144 0.048735917 0.080069505     C
C17   0.47263852 0.3441335 0.05164914     C
C18   0.678839 0.35242164 0.025354592     C
C19   0.5246733 0.03833031 0.10608011     C
C20   0.73849463 0.9681828 0.07148351     C
C21   0.458076 0.42179713 0.032873526     C
C22   0.66481906 0.43032396 0.0072107897     C
C23   0.531956 0.9575657 0.09917713     C
C24   0.6351546 0.92291284 0.071037516     C
C25   0.55770093 0.46759748 0.021785382     C
C26   0.6219252 0.08318505 0.09153704     C
C27   0.5840543 0.31111407 0.051720127     C
I28   0.91132927 0.9202692 0.07074649     I
I29   0.2850939 0.46178672 0.0057759425     I
I30   0.7983111 0.48442054 0.944061     I
I31   0.39220187 0.89218664 0.14475751     I
Br32  0.86677396 0.11295313 0.0765317    Br
Br33  0.3401781 0.28288183 0.077178165    Br
Br34  0.8275835 0.30248398 0.014002389    Br
Br35  0.3820144 0.08828553 0.13549104    Br
O36   0.6465501 0.592636 0.02798024     O
O37   0.5401833 0.80114496 0.044539105     O
O38   0.7322462 0.8081264 0.025940621     O
O39   0.45448714 0.5856545 0.046578724     O
loop_
_geom_bond_atom_site_label_1
_geom_bond_atom_site_label_2
_geom_bond_distance
_geom_bond_site_symmetry_2
_ccdc_geom_bond_type
C0    C2     1.19442   1_556     D
C0    C5     1.41482       .     S
C1    C2     1.39407       .     S
C1    C3     1.19433   1_455     T
C2    C0     1.19442   1_554     S
C2    C1     1.39407       .     T
C3    C1     1.19433   1_655     S
C3    C4     1.41453       .     D
C4    C3     1.41453       .     S
C4    O8     1.30076       .     D
C4    O9     1.30346       .     S
C5    C0     1.41482       .     S
C5    O6     1.21319   1_556     T
C5    O7     1.21721       .     S
O6    C5     1.21319   1_554     T
O6    Zn11   2.96972       .     S
O7    C5     1.21721       .     D
O7    Zn11   2.67419   1_556     S
O8    C4     1.30076       .     S
O8    Zn10   2.97151   1_554     S
O9    C4     1.30346       .     D
O9    Zn10   2.85683   1_554     S
Zn10  O8     2.97151   1_556     S
Zn10  O9     2.85683   1_556     S
Zn10  Zn11   3.06736   1_556     S
Zn10  O36    1.78362   1_556     A
Zn10  O38    2.29030   1_556     A
Zn11  O6     2.96972       .     A
Zn11  O7     2.67419   1_554     A
Zn11  Zn10   3.06736   1_554     A
Zn11  O37    1.76908       .     S
Zn11  O39    2.28700       .     A
C12   C25    1.47466       .     S
C12   O36    1.29448       .     S
C12   O39    1.29348       .     T
C13   C24    1.48314       .     S
C13   O37    1.29574       .     S
C13   O38    1.29354       .     S
C14   C15    1.19423       .     A
C14   C26    1.42450       .     A
C15   C14    1.19423       .     A
C15   C27    1.42435       .     A
C16   C20    1.40013   1_545     A
C16   C26    1.39671       .     S
C16   Br32   1.93146       .     A
C17   C21    1.39801       .     S
C17   C27    1.40109       .     S
C17   Br33   1.92963       .     D
C18   C22    1.39854       .     S
C18   C27    1.40258       .     D
C18   Br34   1.92716       .     S
C19   C23    1.40078   1_545     S
C19   C26    1.39753       .     S
C19   Br35   1.93018       .     S
C20   C16    1.40013   1_565     A
C20   C24    1.42627       .     A
C20   I28    2.15135       .     A
C21   C17    1.39801       .     A
C21   C25    1.41696       .     A
C21   I29    2.14832       .     S
C22   C18    1.39854       .     A
C22   C25    1.41575       .     S
C22   I30    2.15224   1_554     S
C23   C19    1.40078   1_565     T
C23   C24    1.42450       .     S
C23   I31    2.15452       .     S
C24   C13    1.48314       .     S
C24   C20    1.42627       .     A
C24   C23    1.42450       .     A
C25   C12    1.47466       .     A
C25   C21    1.41696       .     A
C25   C22    1.41575       .     A
C26   C14    1.42450       .     S
C26   C16    1.39671       .     A
C26   C19    1.39753       .     S
C27   C15    1.42435       .     S
C27   C17    1.40109       .     D
C27   C18    1.40258       .     S
I28   C20    2.15135       .     S
I29   C21    2.14832       .     S
I30   C22    2.15224   1_556     S
I31   C23    2.15452       .     S
Br32  C16    1.93146       .     S
Br33  C17    1.92963       .     S
Br34  C18    1.92716       .     S
Br35  C19    1.93018       .     S
O36   Zn10   1.78362   1_554     S
O36   C12    1.29448       .     S
O37   Zn11   1.76908       .     S
O37   C13    1.29574       .     S
O38   Zn10   2.29030   1_554     S
O38   C13    1.29354       .     S
O39   Zn11   2.28700       .     S
O39   C12    1.29348       .     S
