data_sample_12_relaxed_charged

_audit_creation_method RASPA-1.0
_audit_creation_date 2026-2-5
_audit_author_name ''

_cell_length_a    24.8781
_cell_length_b    26.423
_cell_length_c    35.7406
_cell_angle_alpha 89.5162
_cell_angle_beta  89.2371
_cell_angle_gamma 88.14
_cell_volume      23479

_symmetry_cell_setting          triclinic
_symmetry_space_group_name_Hall 'P 1'
_symmetry_space_group_name_H-M  'P 1'
_symmetry_Int_Tables_number     1

_symmetry_equiv_pos_as_xyz 'x,y,z'

loop_
_atom_site_label
_atom_site_type_symbol
_atom_site_fract_x
_atom_site_fract_y
_atom_site_fract_z
_atom_site_charge
Zn0      Zn     0.239923360000     0.088562250000     0.326297000000     3.36212    
Zn1      Zn     0.352894300000     0.123116730000     0.340328550000    -13.2305    
H2       H      0.124621415000     0.154179200000     0.347225430000     0.584882   
H3       H      0.385245200000     0.190317720000     0.328916950000    -0.250385   
H4       H      0.052895365000     0.196092410000     0.345592200000    -0.178344   
H5       H      0.465813700000     0.238815265000     0.342872400000     0.833797   
H6       H      0.443559950000     0.021848925000     0.312721350000    -0.762016   
H7       H      0.206964300000     0.015092225000     0.335096270000    -1.05634    
H8       H      0.026711540000     0.474507185000     0.313998250000     0.162536   
H9       H      0.123778505000     0.470729025000     0.321701975000     0.224948   
H10      H      0.369171150000     0.149108000000     0.144248750000     0.078068   
H11      H      0.209595340000     0.154265600000     0.028493155000     0.032299   
H12      H      0.370105050000     0.089957300000     0.015935485000     0.012979   
H13      H      0.235043650000     0.049969765000     0.142229380000     0.077533   
H14      H      0.376961230000     0.135527880000     0.211963830000     0.090412   
H15      H      0.203213425000     0.163406820000     0.460524025000     0.041568   
H16      H      0.363339700000     0.097835965000     0.448015100000    -0.053742   
H17      H      0.243423150000     0.035161395000     0.209727300000     0.068158   
H18      H      0.276601000000     0.079665245000     0.354582965000    -0.45686    
H19      H      0.163538785000     0.172312485000     0.362296100000     0.107067   
H20      H      0.388228650000     0.201451400000     0.346190480000     0.091742   
H21      H      0.373197675000     0.268676250000     0.352202030000    -0.020812   
H22      H      0.450425565000     0.219287125000     0.294264700000     0.253812   
H23      H      0.433099330000     0.286115300000     0.296591820000     0.079528   
H24      H      0.468050350000     0.255133550000     0.334968850000    -0.601169   
H25      H      0.402898430000     0.371068420000     0.348925530000     0.080129   
H26      H      0.431108600000     0.429157825000     0.364980850000     0.03301    
H27      H      0.010047495000     0.416450450000     0.323912000000     0.02366    
H28      H      0.000675680000     0.360953150000     0.352783750000     0.034951   
H29      H      0.482166380000     0.360752550000     0.304056550000     0.069313   
H30      H      0.157359020000     0.303352350000     0.346991450000     0.144111   
H31      H      0.131268920000     0.253474300000     0.375632850000     0.115031   
H32      H      0.184115765000     0.290735425000     0.393244415000     0.123164   
H33      H      0.209522365000     0.455400885000     0.351283000000    -0.201067   
H34      H      0.220185850000     0.001058815000     0.387432450000    -0.399625   
H35      H      0.198522060000     0.021111905000     0.341483750000     0.783637   
H36      H      0.303309170000     0.109824525000     0.277367500000    -2.06516    
H37      H      0.357393400000     0.151738200000     0.282773600000     0.69498    
H38      H      0.344573350000     0.106229590000     0.318857250000    -16.325     
H39      H      0.457209650000     0.065016210000     0.306976950000    -0.377871   
H40      H      0.473832650000     0.003844915000     0.325282100000     0.086132   
H41      H      0.450965650000     0.010950805000     0.277612775000     0.098983   
C42      C      0.122089300000     0.011052915000     0.327125050000    -0.404718   
C43      C      0.424315950000     0.171245365000     0.330137730000     1.54443    
C44      C      0.469378050000     0.198466750000     0.337972150000    -1.14515    
C45      C      0.019135920000     0.173213170000     0.339447530000     0.793413   
C46      C      0.023625330000     0.120360680000     0.333003225000    -0.662572   
C47      C      0.476556450000     0.094562195000     0.325185565000     1.22651    
C48      C      0.072574710000     0.092209860000     0.333845250000     0.840509   
C49      C      0.073683025000     0.039173920000     0.326755730000    -0.07806    
C50      C      0.026531240000     0.014859970000     0.319322550000    -0.333827   
C51      C      0.478532200000     0.042382200000     0.318602235000     0.01069    
C52      C      0.120970495000     0.114604460000     0.341361100000    -1.83624    
C53      C      0.168716100000     0.035756300000     0.334602900000     0.987036   
C54      C      0.296920480000     0.108657590000     0.099454550000    -0.041304   
C55      C      0.293562400000     0.114636700000     0.066280100000     0.003006   
C56      C      0.277017850000     0.131270850000     0.407814115000    -0.487366   
C57      C      0.314240400000     0.077895300000     0.256538400000     0.910111   
C58      C      0.341436475000     0.124529580000     0.158577935000    -0.10719    
C59      C      0.243027730000     0.141468985000     0.010871200000    -0.020551   
C60      C      0.333333335000     0.105477295000     0.003825110000    -0.020011   
C61      C      0.265836050000     0.068889625000     0.157473060000    -0.112834   
C62      C      0.345947175000     0.116576160000     0.197017120000     0.100424   
C63      C      0.239063900000     0.145735460000     0.472081480000    -0.113569   
C64      C      0.329357900000     0.109728820000     0.465091100000    -0.13973    
C65      C      0.270312070000     0.060892345000     0.195914430000     0.145746   
C66      C      0.310027900000     0.085123235000     0.215997460000    -0.330102   
C67      C      0.281684050000     0.128582360000     0.448789180000     0.127292   
C68      C      0.301238270000     0.100866370000     0.138888985000     0.087994   
C69      C      0.289965000000     0.120794075000     0.026662915000    -0.013342   
C70      C      0.270262550000     0.309006480000     0.334102150000     0.322499   
C71      C      0.297815700000     0.406986325000     0.332912350000    -0.529428   
C72      C      0.286028175000     0.168345885000     0.317803025000    -2.24723    
C73      C      0.388507000000     0.017242310000     0.319654525000     5.02324    
C74      C      0.296971300000     0.220221370000     0.319250525000     1.24015    
C75      C      0.369608600000     0.467726620000     0.320779350000    -2.82584    
C76      C      0.258896000000     0.254879625000     0.335076600000    -0.636049   
C77      C      0.316366850000     0.458891780000     0.332783965000     2.32778    
C78      C      0.210566730000     0.237485275000     0.350933750000     0.585172   
C79      C      0.282498330000     0.499553550000     0.345109970000    -3.68734    
C80      C      0.200610070000     0.185841965000     0.350118220000    -0.700142   
C81      C      0.302470550000     0.048262655000     0.345252500000     9.26597    
C82      C      0.325056550000     0.132113380000     0.298147320000     9.07711    
C83      C      0.445637850000     0.025039255000     0.306635765000    -0.256407   
C84      C      0.383555950000     0.238645675000     0.331420050000     0.227063   
C85      C      0.437225550000     0.250563900000     0.313176650000    -0.018272   
C86      C      0.427256300000     0.403821350000     0.340345200000    -0.149735   
C87      C      0.483510300000     0.384237200000     0.329576400000    -0.073208   
C88      C      0.168470800000     0.273278700000     0.367628550000    -0.404982   
C89      C      0.224619400000     0.493494035000     0.357025100000     1.39128    
C90      C      0.223380820000     0.097813765000     0.333150200000    -1.0504     
C91      C      0.371319900000     0.109778105000     0.331582850000     46.4984    
C92      C      0.237581200000     0.151256770000     0.333806350000     1.66193    
C93      C      0.354395800000     0.057509960000     0.332067900000    -13.1145    
N94      N      0.166343065000     0.086141500000     0.341357700000     12.6594    
N95      N      0.429067200000     0.120639955000     0.324027120000    -4.9152     
N96      N      0.287603020000     0.330889970000     0.301869500000    -0.112757   
N97      N      0.301229100000     0.379096865000     0.301285925000     0.070516   
N98      N      0.280711100000     0.385127800000     0.365206570000     0.034369   
N99      N      0.267137550000     0.336883600000     0.365776050000    -0.129729   
O100     O      0.321347600000     0.135921075000     0.387769400000     1.61183    
O101     O      0.269910200000     0.071851985000     0.276410670000     0.490488   
O102     O      0.362364500000     0.078659830000     0.271113050000     0.538018   
O103     O      0.228893300000     0.129113210000     0.393067000000    -0.2627     
O104     O      0.173885330000     0.086764975000     0.328235750000    -14.2368    
O105     O      0.369521750000     0.134901525000     0.362229900000    -6.27543    
O106     O      0.259826800000     0.062818655000     0.338595550000    -4.28667    
O107     O      0.385682165000     0.130409720000     0.300410150000    -10.4616    
O108     O      0.344085950000     0.237530250000     0.303444200000    -0.517674   
O109     O      0.403393850000     0.428117350000     0.308946900000     0.526468   
Zn0      Zn     0.239923360000     0.088562250000     0.826297000000     3.36212    
Zn1      Zn     0.352894300000     0.123116730000     0.840328550000    -13.2305    
H2       H      0.124621415000     0.154179200000     0.847225430000     0.584882   
H3       H      0.385245200000     0.190317720000     0.828916950000    -0.250385   
H4       H      0.052895365000     0.196092410000     0.845592200000    -0.178344   
H5       H      0.465813700000     0.238815265000     0.842872400000     0.833797   
H6       H      0.443559950000     0.021848925000     0.812721350000    -0.762016   
H7       H      0.206964300000     0.015092225000     0.835096270000    -1.05634    
H8       H      0.026711540000     0.474507185000     0.813998250000     0.162536   
H9       H      0.123778505000     0.470729025000     0.821701975000     0.224948   
H10      H      0.369171150000     0.149108000000     0.644248750000     0.078068   
H11      H      0.209595340000     0.154265600000     0.528493155000     0.032299   
H12      H      0.370105050000     0.089957300000     0.515935485000     0.012979   
H13      H      0.235043650000     0.049969765000     0.642229380000     0.077533   
H14      H      0.376961230000     0.135527880000     0.711963830000     0.090412   
H15      H      0.203213425000     0.163406820000     0.960524025000     0.041568   
H16      H      0.363339700000     0.097835965000     0.948015100000    -0.053742   
H17      H      0.243423150000     0.035161395000     0.709727300000     0.068158   
H18      H      0.276601000000     0.079665245000     0.854582965000    -0.45686    
H19      H      0.163538785000     0.172312485000     0.862296100000     0.107067   
H20      H      0.388228650000     0.201451400000     0.846190480000     0.091742   
H21      H      0.373197675000     0.268676250000     0.852202030000    -0.020812   
H22      H      0.450425565000     0.219287125000     0.794264700000     0.253812   
H23      H      0.433099330000     0.286115300000     0.796591820000     0.079528   
H24      H      0.468050350000     0.255133550000     0.834968850000    -0.601169   
H25      H      0.402898430000     0.371068420000     0.848925530000     0.080129   
H26      H      0.431108600000     0.429157825000     0.864980850000     0.03301    
H27      H      0.010047495000     0.416450450000     0.823912000000     0.02366    
H28      H      0.000675680000     0.360953150000     0.852783750000     0.034951   
H29      H      0.482166380000     0.360752550000     0.804056550000     0.069313   
H30      H      0.157359020000     0.303352350000     0.846991450000     0.144111   
H31      H      0.131268920000     0.253474300000     0.875632850000     0.115031   
H32      H      0.184115765000     0.290735425000     0.893244415000     0.123164   
H33      H      0.209522365000     0.455400885000     0.851283000000    -0.201067   
H34      H      0.220185850000     0.001058815000     0.887432450000    -0.399625   
H35      H      0.198522060000     0.021111905000     0.841483750000     0.783637   
H36      H      0.303309170000     0.109824525000     0.777367500000    -2.06516    
H37      H      0.357393400000     0.151738200000     0.782773600000     0.69498    
H38      H      0.344573350000     0.106229590000     0.818857250000    -16.325     
H39      H      0.457209650000     0.065016210000     0.806976950000    -0.377871   
H40      H      0.473832650000     0.003844915000     0.825282100000     0.086132   
H41      H      0.450965650000     0.010950805000     0.777612775000     0.098983   
C42      C      0.122089300000     0.011052915000     0.827125050000    -0.404718   
C43      C      0.424315950000     0.171245365000     0.830137730000     1.54443    
C44      C      0.469378050000     0.198466750000     0.837972150000    -1.14515    
C45      C      0.019135920000     0.173213170000     0.839447530000     0.793413   
C46      C      0.023625330000     0.120360680000     0.833003225000    -0.662572   
C47      C      0.476556450000     0.094562195000     0.825185565000     1.22651    
C48      C      0.072574710000     0.092209860000     0.833845250000     0.840509   
C49      C      0.073683025000     0.039173920000     0.826755730000    -0.07806    
C50      C      0.026531240000     0.014859970000     0.819322550000    -0.333827   
C51      C      0.478532200000     0.042382200000     0.818602235000     0.01069    
C52      C      0.120970495000     0.114604460000     0.841361100000    -1.83624    
C53      C      0.168716100000     0.035756300000     0.834602900000     0.987036   
C54      C      0.296920480000     0.108657590000     0.599454550000    -0.041304   
C55      C      0.293562400000     0.114636700000     0.566280100000     0.003006   
C56      C      0.277017850000     0.131270850000     0.907814115000    -0.487366   
C57      C      0.314240400000     0.077895300000     0.756538400000     0.910111   
C58      C      0.341436475000     0.124529580000     0.658577935000    -0.10719    
C59      C      0.243027730000     0.141468985000     0.510871200000    -0.020551   
C60      C      0.333333335000     0.105477295000     0.503825110000    -0.020011   
C61      C      0.265836050000     0.068889625000     0.657473060000    -0.112834   
C62      C      0.345947175000     0.116576160000     0.697017120000     0.100424   
C63      C      0.239063900000     0.145735460000     0.972081480000    -0.113569   
C64      C      0.329357900000     0.109728820000     0.965091100000    -0.13973    
C65      C      0.270312070000     0.060892345000     0.695914430000     0.145746   
C66      C      0.310027900000     0.085123235000     0.715997460000    -0.330102   
C67      C      0.281684050000     0.128582360000     0.948789180000     0.127292   
C68      C      0.301238270000     0.100866370000     0.638888985000     0.087994   
C69      C      0.289965000000     0.120794075000     0.526662915000    -0.013342   
C70      C      0.270262550000     0.309006480000     0.834102150000     0.322499   
C71      C      0.297815700000     0.406986325000     0.832912350000    -0.529428   
C72      C      0.286028175000     0.168345885000     0.817803025000    -2.24723    
C73      C      0.388507000000     0.017242310000     0.819654525000     5.02324    
C74      C      0.296971300000     0.220221370000     0.819250525000     1.24015    
C75      C      0.369608600000     0.467726620000     0.820779350000    -2.82584    
C76      C      0.258896000000     0.254879625000     0.835076600000    -0.636049   
C77      C      0.316366850000     0.458891780000     0.832783965000     2.32778    
C78      C      0.210566730000     0.237485275000     0.850933750000     0.585172   
C79      C      0.282498330000     0.499553550000     0.845109970000    -3.68734    
C80      C      0.200610070000     0.185841965000     0.850118220000    -0.700142   
C81      C      0.302470550000     0.048262655000     0.845252500000     9.26597    
C82      C      0.325056550000     0.132113380000     0.798147320000     9.07711    
C83      C      0.445637850000     0.025039255000     0.806635765000    -0.256407   
C84      C      0.383555950000     0.238645675000     0.831420050000     0.227063   
C85      C      0.437225550000     0.250563900000     0.813176650000    -0.018272   
C86      C      0.427256300000     0.403821350000     0.840345200000    -0.149735   
C87      C      0.483510300000     0.384237200000     0.829576400000    -0.073208   
C88      C      0.168470800000     0.273278700000     0.867628550000    -0.404982   
C89      C      0.224619400000     0.493494035000     0.857025100000     1.39128    
C90      C      0.223380820000     0.097813765000     0.833150200000    -1.0504     
C91      C      0.371319900000     0.109778105000     0.831582850000     46.4984    
C92      C      0.237581200000     0.151256770000     0.833806350000     1.66193    
C93      C      0.354395800000     0.057509960000     0.832067900000    -13.1145    
N94      N      0.166343065000     0.086141500000     0.841357700000     12.6594    
N95      N      0.429067200000     0.120639955000     0.824027120000    -4.9152     
N96      N      0.287603020000     0.330889970000     0.801869500000    -0.112757   
N97      N      0.301229100000     0.379096865000     0.801285925000     0.070516   
N98      N      0.280711100000     0.385127800000     0.865206570000     0.034369   
N99      N      0.267137550000     0.336883600000     0.865776050000    -0.129729   
O100     O      0.321347600000     0.135921075000     0.887769400000     1.61183    
O101     O      0.269910200000     0.071851985000     0.776410670000     0.490488   
O102     O      0.362364500000     0.078659830000     0.771113050000     0.538018   
O103     O      0.228893300000     0.129113210000     0.893067000000    -0.2627     
O104     O      0.173885330000     0.086764975000     0.828235750000    -14.2368    
O105     O      0.369521750000     0.134901525000     0.862229900000    -6.27543    
O106     O      0.259826800000     0.062818655000     0.838595550000    -4.28667    
O107     O      0.385682165000     0.130409720000     0.800410150000    -10.4616    
O108     O      0.344085950000     0.237530250000     0.803444200000    -0.517674   
O109     O      0.403393850000     0.428117350000     0.808946900000     0.526468   
Zn0      Zn     0.239923360000     0.588562250000     0.326297000000     3.36212    
Zn1      Zn     0.352894300000     0.623116730000     0.340328550000    -13.2305    
H2       H      0.124621415000     0.654179200000     0.347225430000     0.584882   
H3       H      0.385245200000     0.690317720000     0.328916950000    -0.250385   
H4       H      0.052895365000     0.696092410000     0.345592200000    -0.178344   
H5       H      0.465813700000     0.738815265000     0.342872400000     0.833797   
H6       H      0.443559950000     0.521848925000     0.312721350000    -0.762016   
H7       H      0.206964300000     0.515092225000     0.335096270000    -1.05634    
H8       H      0.026711540000     0.974507185000     0.313998250000     0.162536   
H9       H      0.123778505000     0.970729025000     0.321701975000     0.224948   
H10      H      0.369171150000     0.649108000000     0.144248750000     0.078068   
H11      H      0.209595340000     0.654265600000     0.028493155000     0.032299   
H12      H      0.370105050000     0.589957300000     0.015935485000     0.012979   
H13      H      0.235043650000     0.549969765000     0.142229380000     0.077533   
H14      H      0.376961230000     0.635527880000     0.211963830000     0.090412   
H15      H      0.203213425000     0.663406820000     0.460524025000     0.041568   
H16      H      0.363339700000     0.597835965000     0.448015100000    -0.053742   
H17      H      0.243423150000     0.535161395000     0.209727300000     0.068158   
H18      H      0.276601000000     0.579665245000     0.354582965000    -0.45686    
H19      H      0.163538785000     0.672312485000     0.362296100000     0.107067   
H20      H      0.388228650000     0.701451400000     0.346190480000     0.091742   
H21      H      0.373197675000     0.768676250000     0.352202030000    -0.020812   
H22      H      0.450425565000     0.719287125000     0.294264700000     0.253812   
H23      H      0.433099330000     0.786115300000     0.296591820000     0.079528   
H24      H      0.468050350000     0.755133550000     0.334968850000    -0.601169   
H25      H      0.402898430000     0.871068420000     0.348925530000     0.080129   
H26      H      0.431108600000     0.929157825000     0.364980850000     0.03301    
H27      H      0.010047495000     0.916450450000     0.323912000000     0.02366    
H28      H      0.000675680000     0.860953150000     0.352783750000     0.034951   
H29      H      0.482166380000     0.860752550000     0.304056550000     0.069313   
H30      H      0.157359020000     0.803352350000     0.346991450000     0.144111   
H31      H      0.131268920000     0.753474300000     0.375632850000     0.115031   
H32      H      0.184115765000     0.790735425000     0.393244415000     0.123164   
H33      H      0.209522365000     0.955400885000     0.351283000000    -0.201067   
H34      H      0.220185850000     0.501058815000     0.387432450000    -0.399625   
H35      H      0.198522060000     0.521111905000     0.341483750000     0.783637   
H36      H      0.303309170000     0.609824525000     0.277367500000    -2.06516    
H37      H      0.357393400000     0.651738200000     0.282773600000     0.69498    
H38      H      0.344573350000     0.606229590000     0.318857250000    -16.325     
H39      H      0.457209650000     0.565016210000     0.306976950000    -0.377871   
H40      H      0.473832650000     0.503844915000     0.325282100000     0.086132   
H41      H      0.450965650000     0.510950805000     0.277612775000     0.098983   
C42      C      0.122089300000     0.511052915000     0.327125050000    -0.404718   
C43      C      0.424315950000     0.671245365000     0.330137730000     1.54443    
C44      C      0.469378050000     0.698466750000     0.337972150000    -1.14515    
C45      C      0.019135920000     0.673213170000     0.339447530000     0.793413   
C46      C      0.023625330000     0.620360680000     0.333003225000    -0.662572   
C47      C      0.476556450000     0.594562195000     0.325185565000     1.22651    
C48      C      0.072574710000     0.592209860000     0.333845250000     0.840509   
C49      C      0.073683025000     0.539173920000     0.326755730000    -0.07806    
C50      C      0.026531240000     0.514859970000     0.319322550000    -0.333827   
C51      C      0.478532200000     0.542382200000     0.318602235000     0.01069    
C52      C      0.120970495000     0.614604460000     0.341361100000    -1.83624    
C53      C      0.168716100000     0.535756300000     0.334602900000     0.987036   
C54      C      0.296920480000     0.608657590000     0.099454550000    -0.041304   
C55      C      0.293562400000     0.614636700000     0.066280100000     0.003006   
C56      C      0.277017850000     0.631270850000     0.407814115000    -0.487366   
C57      C      0.314240400000     0.577895300000     0.256538400000     0.910111   
C58      C      0.341436475000     0.624529580000     0.158577935000    -0.10719    
C59      C      0.243027730000     0.641468985000     0.010871200000    -0.020551   
C60      C      0.333333335000     0.605477295000     0.003825110000    -0.020011   
C61      C      0.265836050000     0.568889625000     0.157473060000    -0.112834   
C62      C      0.345947175000     0.616576160000     0.197017120000     0.100424   
C63      C      0.239063900000     0.645735460000     0.472081480000    -0.113569   
C64      C      0.329357900000     0.609728820000     0.465091100000    -0.13973    
C65      C      0.270312070000     0.560892345000     0.195914430000     0.145746   
C66      C      0.310027900000     0.585123235000     0.215997460000    -0.330102   
C67      C      0.281684050000     0.628582360000     0.448789180000     0.127292   
C68      C      0.301238270000     0.600866370000     0.138888985000     0.087994   
C69      C      0.289965000000     0.620794075000     0.026662915000    -0.013342   
C70      C      0.270262550000     0.809006480000     0.334102150000     0.322499   
C71      C      0.297815700000     0.906986325000     0.332912350000    -0.529428   
C72      C      0.286028175000     0.668345885000     0.317803025000    -2.24723    
C73      C      0.388507000000     0.517242310000     0.319654525000     5.02324    
C74      C      0.296971300000     0.720221370000     0.319250525000     1.24015    
C75      C      0.369608600000     0.967726620000     0.320779350000    -2.82584    
C76      C      0.258896000000     0.754879625000     0.335076600000    -0.636049   
C77      C      0.316366850000     0.958891780000     0.332783965000     2.32778    
C78      C      0.210566730000     0.737485275000     0.350933750000     0.585172   
C79      C      0.282498330000     0.999553550000     0.345109970000    -3.68734    
C80      C      0.200610070000     0.685841965000     0.350118220000    -0.700142   
C81      C      0.302470550000     0.548262655000     0.345252500000     9.26597    
C82      C      0.325056550000     0.632113380000     0.298147320000     9.07711    
C83      C      0.445637850000     0.525039255000     0.306635765000    -0.256407   
C84      C      0.383555950000     0.738645675000     0.331420050000     0.227063   
C85      C      0.437225550000     0.750563900000     0.313176650000    -0.018272   
C86      C      0.427256300000     0.903821350000     0.340345200000    -0.149735   
C87      C      0.483510300000     0.884237200000     0.329576400000    -0.073208   
C88      C      0.168470800000     0.773278700000     0.367628550000    -0.404982   
C89      C      0.224619400000     0.993494035000     0.357025100000     1.39128    
C90      C      0.223380820000     0.597813765000     0.333150200000    -1.0504     
C91      C      0.371319900000     0.609778105000     0.331582850000     46.4984    
C92      C      0.237581200000     0.651256770000     0.333806350000     1.66193    
C93      C      0.354395800000     0.557509960000     0.332067900000    -13.1145    
N94      N      0.166343065000     0.586141500000     0.341357700000     12.6594    
N95      N      0.429067200000     0.620639955000     0.324027120000    -4.9152     
N96      N      0.287603020000     0.830889970000     0.301869500000    -0.112757   
N97      N      0.301229100000     0.879096865000     0.301285925000     0.070516   
N98      N      0.280711100000     0.885127800000     0.365206570000     0.034369   
N99      N      0.267137550000     0.836883600000     0.365776050000    -0.129729   
O100     O      0.321347600000     0.635921075000     0.387769400000     1.61183    
O101     O      0.269910200000     0.571851985000     0.276410670000     0.490488   
O102     O      0.362364500000     0.578659830000     0.271113050000     0.538018   
O103     O      0.228893300000     0.629113210000     0.393067000000    -0.2627     
O104     O      0.173885330000     0.586764975000     0.328235750000    -14.2368    
O105     O      0.369521750000     0.634901525000     0.362229900000    -6.27543    
O106     O      0.259826800000     0.562818655000     0.338595550000    -4.28667    
O107     O      0.385682165000     0.630409720000     0.300410150000    -10.4616    
O108     O      0.344085950000     0.737530250000     0.303444200000    -0.517674   
O109     O      0.403393850000     0.928117350000     0.308946900000     0.526468   
Zn0      Zn     0.239923360000     0.588562250000     0.826297000000     3.36212    
Zn1      Zn     0.352894300000     0.623116730000     0.840328550000    -13.2305    
H2       H      0.124621415000     0.654179200000     0.847225430000     0.584882   
H3       H      0.385245200000     0.690317720000     0.828916950000    -0.250385   
H4       H      0.052895365000     0.696092410000     0.845592200000    -0.178344   
H5       H      0.465813700000     0.738815265000     0.842872400000     0.833797   
H6       H      0.443559950000     0.521848925000     0.812721350000    -0.762016   
H7       H      0.206964300000     0.515092225000     0.835096270000    -1.05634    
H8       H      0.026711540000     0.974507185000     0.813998250000     0.162536   
H9       H      0.123778505000     0.970729025000     0.821701975000     0.224948   
H10      H      0.369171150000     0.649108000000     0.644248750000     0.078068   
H11      H      0.209595340000     0.654265600000     0.528493155000     0.032299   
H12      H      0.370105050000     0.589957300000     0.515935485000     0.012979   
H13      H      0.235043650000     0.549969765000     0.642229380000     0.077533   
H14      H      0.376961230000     0.635527880000     0.711963830000     0.090412   
H15      H      0.203213425000     0.663406820000     0.960524025000     0.041568   
H16      H      0.363339700000     0.597835965000     0.948015100000    -0.053742   
H17      H      0.243423150000     0.535161395000     0.709727300000     0.068158   
H18      H      0.276601000000     0.579665245000     0.854582965000    -0.45686    
H19      H      0.163538785000     0.672312485000     0.862296100000     0.107067   
H20      H      0.388228650000     0.701451400000     0.846190480000     0.091742   
H21      H      0.373197675000     0.768676250000     0.852202030000    -0.020812   
H22      H      0.450425565000     0.719287125000     0.794264700000     0.253812   
H23      H      0.433099330000     0.786115300000     0.796591820000     0.079528   
H24      H      0.468050350000     0.755133550000     0.834968850000    -0.601169   
H25      H      0.402898430000     0.871068420000     0.848925530000     0.080129   
H26      H      0.431108600000     0.929157825000     0.864980850000     0.03301    
H27      H      0.010047495000     0.916450450000     0.823912000000     0.02366    
H28      H      0.000675680000     0.860953150000     0.852783750000     0.034951   
H29      H      0.482166380000     0.860752550000     0.804056550000     0.069313   
H30      H      0.157359020000     0.803352350000     0.846991450000     0.144111   
H31      H      0.131268920000     0.753474300000     0.875632850000     0.115031   
H32      H      0.184115765000     0.790735425000     0.893244415000     0.123164   
H33      H      0.209522365000     0.955400885000     0.851283000000    -0.201067   
H34      H      0.220185850000     0.501058815000     0.887432450000    -0.399625   
H35      H      0.198522060000     0.521111905000     0.841483750000     0.783637   
H36      H      0.303309170000     0.609824525000     0.777367500000    -2.06516    
H37      H      0.357393400000     0.651738200000     0.782773600000     0.69498    
H38      H      0.344573350000     0.606229590000     0.818857250000    -16.325     
H39      H      0.457209650000     0.565016210000     0.806976950000    -0.377871   
H40      H      0.473832650000     0.503844915000     0.825282100000     0.086132   
H41      H      0.450965650000     0.510950805000     0.777612775000     0.098983   
C42      C      0.122089300000     0.511052915000     0.827125050000    -0.404718   
C43      C      0.424315950000     0.671245365000     0.830137730000     1.54443    
C44      C      0.469378050000     0.698466750000     0.837972150000    -1.14515    
C45      C      0.019135920000     0.673213170000     0.839447530000     0.793413   
C46      C      0.023625330000     0.620360680000     0.833003225000    -0.662572   
C47      C      0.476556450000     0.594562195000     0.825185565000     1.22651    
C48      C      0.072574710000     0.592209860000     0.833845250000     0.840509   
C49      C      0.073683025000     0.539173920000     0.826755730000    -0.07806    
C50      C      0.026531240000     0.514859970000     0.819322550000    -0.333827   
C51      C      0.478532200000     0.542382200000     0.818602235000     0.01069    
C52      C      0.120970495000     0.614604460000     0.841361100000    -1.83624    
C53      C      0.168716100000     0.535756300000     0.834602900000     0.987036   
C54      C      0.296920480000     0.608657590000     0.599454550000    -0.041304   
C55      C      0.293562400000     0.614636700000     0.566280100000     0.003006   
C56      C      0.277017850000     0.631270850000     0.907814115000    -0.487366   
C57      C      0.314240400000     0.577895300000     0.756538400000     0.910111   
C58      C      0.341436475000     0.624529580000     0.658577935000    -0.10719    
C59      C      0.243027730000     0.641468985000     0.510871200000    -0.020551   
C60      C      0.333333335000     0.605477295000     0.503825110000    -0.020011   
C61      C      0.265836050000     0.568889625000     0.657473060000    -0.112834   
C62      C      0.345947175000     0.616576160000     0.697017120000     0.100424   
C63      C      0.239063900000     0.645735460000     0.972081480000    -0.113569   
C64      C      0.329357900000     0.609728820000     0.965091100000    -0.13973    
C65      C      0.270312070000     0.560892345000     0.695914430000     0.145746   
C66      C      0.310027900000     0.585123235000     0.715997460000    -0.330102   
C67      C      0.281684050000     0.628582360000     0.948789180000     0.127292   
C68      C      0.301238270000     0.600866370000     0.638888985000     0.087994   
C69      C      0.289965000000     0.620794075000     0.526662915000    -0.013342   
C70      C      0.270262550000     0.809006480000     0.834102150000     0.322499   
C71      C      0.297815700000     0.906986325000     0.832912350000    -0.529428   
C72      C      0.286028175000     0.668345885000     0.817803025000    -2.24723    
C73      C      0.388507000000     0.517242310000     0.819654525000     5.02324    
C74      C      0.296971300000     0.720221370000     0.819250525000     1.24015    
C75      C      0.369608600000     0.967726620000     0.820779350000    -2.82584    
C76      C      0.258896000000     0.754879625000     0.835076600000    -0.636049   
C77      C      0.316366850000     0.958891780000     0.832783965000     2.32778    
C78      C      0.210566730000     0.737485275000     0.850933750000     0.585172   
C79      C      0.282498330000     0.999553550000     0.845109970000    -3.68734    
C80      C      0.200610070000     0.685841965000     0.850118220000    -0.700142   
C81      C      0.302470550000     0.548262655000     0.845252500000     9.26597    
C82      C      0.325056550000     0.632113380000     0.798147320000     9.07711    
C83      C      0.445637850000     0.525039255000     0.806635765000    -0.256407   
C84      C      0.383555950000     0.738645675000     0.831420050000     0.227063   
C85      C      0.437225550000     0.750563900000     0.813176650000    -0.018272   
C86      C      0.427256300000     0.903821350000     0.840345200000    -0.149735   
C87      C      0.483510300000     0.884237200000     0.829576400000    -0.073208   
C88      C      0.168470800000     0.773278700000     0.867628550000    -0.404982   
C89      C      0.224619400000     0.993494035000     0.857025100000     1.39128    
C90      C      0.223380820000     0.597813765000     0.833150200000    -1.0504     
C91      C      0.371319900000     0.609778105000     0.831582850000     46.4984    
C92      C      0.237581200000     0.651256770000     0.833806350000     1.66193    
C93      C      0.354395800000     0.557509960000     0.832067900000    -13.1145    
N94      N      0.166343065000     0.586141500000     0.841357700000     12.6594    
N95      N      0.429067200000     0.620639955000     0.824027120000    -4.9152     
N96      N      0.287603020000     0.830889970000     0.801869500000    -0.112757   
N97      N      0.301229100000     0.879096865000     0.801285925000     0.070516   
N98      N      0.280711100000     0.885127800000     0.865206570000     0.034369   
N99      N      0.267137550000     0.836883600000     0.865776050000    -0.129729   
O100     O      0.321347600000     0.635921075000     0.887769400000     1.61183    
O101     O      0.269910200000     0.571851985000     0.776410670000     0.490488   
O102     O      0.362364500000     0.578659830000     0.771113050000     0.538018   
O103     O      0.228893300000     0.629113210000     0.893067000000    -0.2627     
O104     O      0.173885330000     0.586764975000     0.828235750000    -14.2368    
O105     O      0.369521750000     0.634901525000     0.862229900000    -6.27543    
O106     O      0.259826800000     0.562818655000     0.838595550000    -4.28667    
O107     O      0.385682165000     0.630409720000     0.800410150000    -10.4616    
O108     O      0.344085950000     0.737530250000     0.803444200000    -0.517674   
O109     O      0.403393850000     0.928117350000     0.808946900000     0.526468   
Zn0      Zn     0.739923360000     0.088562250000     0.326297000000     3.36212    
Zn1      Zn     0.852894300000     0.123116730000     0.340328550000    -13.2305    
H2       H      0.624621415000     0.154179200000     0.347225430000     0.584882   
H3       H      0.885245200000     0.190317720000     0.328916950000    -0.250385   
H4       H      0.552895365000     0.196092410000     0.345592200000    -0.178344   
H5       H      0.965813700000     0.238815265000     0.342872400000     0.833797   
H6       H      0.943559950000     0.021848925000     0.312721350000    -0.762016   
H7       H      0.706964300000     0.015092225000     0.335096270000    -1.05634    
H8       H      0.526711540000     0.474507185000     0.313998250000     0.162536   
H9       H      0.623778505000     0.470729025000     0.321701975000     0.224948   
H10      H      0.869171150000     0.149108000000     0.144248750000     0.078068   
H11      H      0.709595340000     0.154265600000     0.028493155000     0.032299   
H12      H      0.870105050000     0.089957300000     0.015935485000     0.012979   
H13      H      0.735043650000     0.049969765000     0.142229380000     0.077533   
H14      H      0.876961230000     0.135527880000     0.211963830000     0.090412   
H15      H      0.703213425000     0.163406820000     0.460524025000     0.041568   
H16      H      0.863339700000     0.097835965000     0.448015100000    -0.053742   
H17      H      0.743423150000     0.035161395000     0.209727300000     0.068158   
H18      H      0.776601000000     0.079665245000     0.354582965000    -0.45686    
H19      H      0.663538785000     0.172312485000     0.362296100000     0.107067   
H20      H      0.888228650000     0.201451400000     0.346190480000     0.091742   
H21      H      0.873197675000     0.268676250000     0.352202030000    -0.020812   
H22      H      0.950425565000     0.219287125000     0.294264700000     0.253812   
H23      H      0.933099330000     0.286115300000     0.296591820000     0.079528   
H24      H      0.968050350000     0.255133550000     0.334968850000    -0.601169   
H25      H      0.902898430000     0.371068420000     0.348925530000     0.080129   
H26      H      0.931108600000     0.429157825000     0.364980850000     0.03301    
H27      H      0.510047495000     0.416450450000     0.323912000000     0.02366    
H28      H      0.500675680000     0.360953150000     0.352783750000     0.034951   
H29      H      0.982166380000     0.360752550000     0.304056550000     0.069313   
H30      H      0.657359020000     0.303352350000     0.346991450000     0.144111   
H31      H      0.631268920000     0.253474300000     0.375632850000     0.115031   
H32      H      0.684115765000     0.290735425000     0.393244415000     0.123164   
H33      H      0.709522365000     0.455400885000     0.351283000000    -0.201067   
H34      H      0.720185850000     0.001058815000     0.387432450000    -0.399625   
H35      H      0.698522060000     0.021111905000     0.341483750000     0.783637   
H36      H      0.803309170000     0.109824525000     0.277367500000    -2.06516    
H37      H      0.857393400000     0.151738200000     0.282773600000     0.69498    
H38      H      0.844573350000     0.106229590000     0.318857250000    -16.325     
H39      H      0.957209650000     0.065016210000     0.306976950000    -0.377871   
H40      H      0.973832650000     0.003844915000     0.325282100000     0.086132   
H41      H      0.950965650000     0.010950805000     0.277612775000     0.098983   
C42      C      0.622089300000     0.011052915000     0.327125050000    -0.404718   
C43      C      0.924315950000     0.171245365000     0.330137730000     1.54443    
C44      C      0.969378050000     0.198466750000     0.337972150000    -1.14515    
C45      C      0.519135920000     0.173213170000     0.339447530000     0.793413   
C46      C      0.523625330000     0.120360680000     0.333003225000    -0.662572   
C47      C      0.976556450000     0.094562195000     0.325185565000     1.22651    
C48      C      0.572574710000     0.092209860000     0.333845250000     0.840509   
C49      C      0.573683025000     0.039173920000     0.326755730000    -0.07806    
C50      C      0.526531240000     0.014859970000     0.319322550000    -0.333827   
C51      C      0.978532200000     0.042382200000     0.318602235000     0.01069    
C52      C      0.620970495000     0.114604460000     0.341361100000    -1.83624    
C53      C      0.668716100000     0.035756300000     0.334602900000     0.987036   
C54      C      0.796920480000     0.108657590000     0.099454550000    -0.041304   
C55      C      0.793562400000     0.114636700000     0.066280100000     0.003006   
C56      C      0.777017850000     0.131270850000     0.407814115000    -0.487366   
C57      C      0.814240400000     0.077895300000     0.256538400000     0.910111   
C58      C      0.841436475000     0.124529580000     0.158577935000    -0.10719    
C59      C      0.743027730000     0.141468985000     0.010871200000    -0.020551   
C60      C      0.833333335000     0.105477295000     0.003825110000    -0.020011   
C61      C      0.765836050000     0.068889625000     0.157473060000    -0.112834   
C62      C      0.845947175000     0.116576160000     0.197017120000     0.100424   
C63      C      0.739063900000     0.145735460000     0.472081480000    -0.113569   
C64      C      0.829357900000     0.109728820000     0.465091100000    -0.13973    
C65      C      0.770312070000     0.060892345000     0.195914430000     0.145746   
C66      C      0.810027900000     0.085123235000     0.215997460000    -0.330102   
C67      C      0.781684050000     0.128582360000     0.448789180000     0.127292   
C68      C      0.801238270000     0.100866370000     0.138888985000     0.087994   
C69      C      0.789965000000     0.120794075000     0.026662915000    -0.013342   
C70      C      0.770262550000     0.309006480000     0.334102150000     0.322499   
C71      C      0.797815700000     0.406986325000     0.332912350000    -0.529428   
C72      C      0.786028175000     0.168345885000     0.317803025000    -2.24723    
C73      C      0.888507000000     0.017242310000     0.319654525000     5.02324    
C74      C      0.796971300000     0.220221370000     0.319250525000     1.24015    
C75      C      0.869608600000     0.467726620000     0.320779350000    -2.82584    
C76      C      0.758896000000     0.254879625000     0.335076600000    -0.636049   
C77      C      0.816366850000     0.458891780000     0.332783965000     2.32778    
C78      C      0.710566730000     0.237485275000     0.350933750000     0.585172   
C79      C      0.782498330000     0.499553550000     0.345109970000    -3.68734    
C80      C      0.700610070000     0.185841965000     0.350118220000    -0.700142   
C81      C      0.802470550000     0.048262655000     0.345252500000     9.26597    
C82      C      0.825056550000     0.132113380000     0.298147320000     9.07711    
C83      C      0.945637850000     0.025039255000     0.306635765000    -0.256407   
C84      C      0.883555950000     0.238645675000     0.331420050000     0.227063   
C85      C      0.937225550000     0.250563900000     0.313176650000    -0.018272   
C86      C      0.927256300000     0.403821350000     0.340345200000    -0.149735   
C87      C      0.983510300000     0.384237200000     0.329576400000    -0.073208   
C88      C      0.668470800000     0.273278700000     0.367628550000    -0.404982   
C89      C      0.724619400000     0.493494035000     0.357025100000     1.39128    
C90      C      0.723380820000     0.097813765000     0.333150200000    -1.0504     
C91      C      0.871319900000     0.109778105000     0.331582850000     46.4984    
C92      C      0.737581200000     0.151256770000     0.333806350000     1.66193    
C93      C      0.854395800000     0.057509960000     0.332067900000    -13.1145    
N94      N      0.666343065000     0.086141500000     0.341357700000     12.6594    
N95      N      0.929067200000     0.120639955000     0.324027120000    -4.9152     
N96      N      0.787603020000     0.330889970000     0.301869500000    -0.112757   
N97      N      0.801229100000     0.379096865000     0.301285925000     0.070516   
N98      N      0.780711100000     0.385127800000     0.365206570000     0.034369   
N99      N      0.767137550000     0.336883600000     0.365776050000    -0.129729   
O100     O      0.821347600000     0.135921075000     0.387769400000     1.61183    
O101     O      0.769910200000     0.071851985000     0.276410670000     0.490488   
O102     O      0.862364500000     0.078659830000     0.271113050000     0.538018   
O103     O      0.728893300000     0.129113210000     0.393067000000    -0.2627     
O104     O      0.673885330000     0.086764975000     0.328235750000    -14.2368    
O105     O      0.869521750000     0.134901525000     0.362229900000    -6.27543    
O106     O      0.759826800000     0.062818655000     0.338595550000    -4.28667    
O107     O      0.885682165000     0.130409720000     0.300410150000    -10.4616    
O108     O      0.844085950000     0.237530250000     0.303444200000    -0.517674   
O109     O      0.903393850000     0.428117350000     0.308946900000     0.526468   
Zn0      Zn     0.739923360000     0.088562250000     0.826297000000     3.36212    
Zn1      Zn     0.852894300000     0.123116730000     0.840328550000    -13.2305    
H2       H      0.624621415000     0.154179200000     0.847225430000     0.584882   
H3       H      0.885245200000     0.190317720000     0.828916950000    -0.250385   
H4       H      0.552895365000     0.196092410000     0.845592200000    -0.178344   
H5       H      0.965813700000     0.238815265000     0.842872400000     0.833797   
H6       H      0.943559950000     0.021848925000     0.812721350000    -0.762016   
H7       H      0.706964300000     0.015092225000     0.835096270000    -1.05634    
H8       H      0.526711540000     0.474507185000     0.813998250000     0.162536   
H9       H      0.623778505000     0.470729025000     0.821701975000     0.224948   
H10      H      0.869171150000     0.149108000000     0.644248750000     0.078068   
H11      H      0.709595340000     0.154265600000     0.528493155000     0.032299   
H12      H      0.870105050000     0.089957300000     0.515935485000     0.012979   
H13      H      0.735043650000     0.049969765000     0.642229380000     0.077533   
H14      H      0.876961230000     0.135527880000     0.711963830000     0.090412   
H15      H      0.703213425000     0.163406820000     0.960524025000     0.041568   
H16      H      0.863339700000     0.097835965000     0.948015100000    -0.053742   
H17      H      0.743423150000     0.035161395000     0.709727300000     0.068158   
H18      H      0.776601000000     0.079665245000     0.854582965000    -0.45686    
H19      H      0.663538785000     0.172312485000     0.862296100000     0.107067   
H20      H      0.888228650000     0.201451400000     0.846190480000     0.091742   
H21      H      0.873197675000     0.268676250000     0.852202030000    -0.020812   
H22      H      0.950425565000     0.219287125000     0.794264700000     0.253812   
H23      H      0.933099330000     0.286115300000     0.796591820000     0.079528   
H24      H      0.968050350000     0.255133550000     0.834968850000    -0.601169   
H25      H      0.902898430000     0.371068420000     0.848925530000     0.080129   
H26      H      0.931108600000     0.429157825000     0.864980850000     0.03301    
H27      H      0.510047495000     0.416450450000     0.823912000000     0.02366    
H28      H      0.500675680000     0.360953150000     0.852783750000     0.034951   
H29      H      0.982166380000     0.360752550000     0.804056550000     0.069313   
H30      H      0.657359020000     0.303352350000     0.846991450000     0.144111   
H31      H      0.631268920000     0.253474300000     0.875632850000     0.115031   
H32      H      0.684115765000     0.290735425000     0.893244415000     0.123164   
H33      H      0.709522365000     0.455400885000     0.851283000000    -0.201067   
H34      H      0.720185850000     0.001058815000     0.887432450000    -0.399625   
H35      H      0.698522060000     0.021111905000     0.841483750000     0.783637   
H36      H      0.803309170000     0.109824525000     0.777367500000    -2.06516    
H37      H      0.857393400000     0.151738200000     0.782773600000     0.69498    
H38      H      0.844573350000     0.106229590000     0.818857250000    -16.325     
H39      H      0.957209650000     0.065016210000     0.806976950000    -0.377871   
H40      H      0.973832650000     0.003844915000     0.825282100000     0.086132   
H41      H      0.950965650000     0.010950805000     0.777612775000     0.098983   
C42      C      0.622089300000     0.011052915000     0.827125050000    -0.404718   
C43      C      0.924315950000     0.171245365000     0.830137730000     1.54443    
C44      C      0.969378050000     0.198466750000     0.837972150000    -1.14515    
C45      C      0.519135920000     0.173213170000     0.839447530000     0.793413   
C46      C      0.523625330000     0.120360680000     0.833003225000    -0.662572   
C47      C      0.976556450000     0.094562195000     0.825185565000     1.22651    
C48      C      0.572574710000     0.092209860000     0.833845250000     0.840509   
C49      C      0.573683025000     0.039173920000     0.826755730000    -0.07806    
C50      C      0.526531240000     0.014859970000     0.819322550000    -0.333827   
C51      C      0.978532200000     0.042382200000     0.818602235000     0.01069    
C52      C      0.620970495000     0.114604460000     0.841361100000    -1.83624    
C53      C      0.668716100000     0.035756300000     0.834602900000     0.987036   
C54      C      0.796920480000     0.108657590000     0.599454550000    -0.041304   
C55      C      0.793562400000     0.114636700000     0.566280100000     0.003006   
C56      C      0.777017850000     0.131270850000     0.907814115000    -0.487366   
C57      C      0.814240400000     0.077895300000     0.756538400000     0.910111   
C58      C      0.841436475000     0.124529580000     0.658577935000    -0.10719    
C59      C      0.743027730000     0.141468985000     0.510871200000    -0.020551   
C60      C      0.833333335000     0.105477295000     0.503825110000    -0.020011   
C61      C      0.765836050000     0.068889625000     0.657473060000    -0.112834   
C62      C      0.845947175000     0.116576160000     0.697017120000     0.100424   
C63      C      0.739063900000     0.145735460000     0.972081480000    -0.113569   
C64      C      0.829357900000     0.109728820000     0.965091100000    -0.13973    
C65      C      0.770312070000     0.060892345000     0.695914430000     0.145746   
C66      C      0.810027900000     0.085123235000     0.715997460000    -0.330102   
C67      C      0.781684050000     0.128582360000     0.948789180000     0.127292   
C68      C      0.801238270000     0.100866370000     0.638888985000     0.087994   
C69      C      0.789965000000     0.120794075000     0.526662915000    -0.013342   
C70      C      0.770262550000     0.309006480000     0.834102150000     0.322499   
C71      C      0.797815700000     0.406986325000     0.832912350000    -0.529428   
C72      C      0.786028175000     0.168345885000     0.817803025000    -2.24723    
C73      C      0.888507000000     0.017242310000     0.819654525000     5.02324    
C74      C      0.796971300000     0.220221370000     0.819250525000     1.24015    
C75      C      0.869608600000     0.467726620000     0.820779350000    -2.82584    
C76      C      0.758896000000     0.254879625000     0.835076600000    -0.636049   
C77      C      0.816366850000     0.458891780000     0.832783965000     2.32778    
C78      C      0.710566730000     0.237485275000     0.850933750000     0.585172   
C79      C      0.782498330000     0.499553550000     0.845109970000    -3.68734    
C80      C      0.700610070000     0.185841965000     0.850118220000    -0.700142   
C81      C      0.802470550000     0.048262655000     0.845252500000     9.26597    
C82      C      0.825056550000     0.132113380000     0.798147320000     9.07711    
C83      C      0.945637850000     0.025039255000     0.806635765000    -0.256407   
C84      C      0.883555950000     0.238645675000     0.831420050000     0.227063   
C85      C      0.937225550000     0.250563900000     0.813176650000    -0.018272   
C86      C      0.927256300000     0.403821350000     0.840345200000    -0.149735   
C87      C      0.983510300000     0.384237200000     0.829576400000    -0.073208   
C88      C      0.668470800000     0.273278700000     0.867628550000    -0.404982   
C89      C      0.724619400000     0.493494035000     0.857025100000     1.39128    
C90      C      0.723380820000     0.097813765000     0.833150200000    -1.0504     
C91      C      0.871319900000     0.109778105000     0.831582850000     46.4984    
C92      C      0.737581200000     0.151256770000     0.833806350000     1.66193    
C93      C      0.854395800000     0.057509960000     0.832067900000    -13.1145    
N94      N      0.666343065000     0.086141500000     0.841357700000     12.6594    
N95      N      0.929067200000     0.120639955000     0.824027120000    -4.9152     
N96      N      0.787603020000     0.330889970000     0.801869500000    -0.112757   
N97      N      0.801229100000     0.379096865000     0.801285925000     0.070516   
N98      N      0.780711100000     0.385127800000     0.865206570000     0.034369   
N99      N      0.767137550000     0.336883600000     0.865776050000    -0.129729   
O100     O      0.821347600000     0.135921075000     0.887769400000     1.61183    
O101     O      0.769910200000     0.071851985000     0.776410670000     0.490488   
O102     O      0.862364500000     0.078659830000     0.771113050000     0.538018   
O103     O      0.728893300000     0.129113210000     0.893067000000    -0.2627     
O104     O      0.673885330000     0.086764975000     0.828235750000    -14.2368    
O105     O      0.869521750000     0.134901525000     0.862229900000    -6.27543    
O106     O      0.759826800000     0.062818655000     0.838595550000    -4.28667    
O107     O      0.885682165000     0.130409720000     0.800410150000    -10.4616    
O108     O      0.844085950000     0.237530250000     0.803444200000    -0.517674   
O109     O      0.903393850000     0.428117350000     0.808946900000     0.526468   
Zn0      Zn     0.739923360000     0.588562250000     0.326297000000     3.36212    
Zn1      Zn     0.852894300000     0.623116730000     0.340328550000    -13.2305    
H2       H      0.624621415000     0.654179200000     0.347225430000     0.584882   
H3       H      0.885245200000     0.690317720000     0.328916950000    -0.250385   
H4       H      0.552895365000     0.696092410000     0.345592200000    -0.178344   
H5       H      0.965813700000     0.738815265000     0.342872400000     0.833797   
H6       H      0.943559950000     0.521848925000     0.312721350000    -0.762016   
H7       H      0.706964300000     0.515092225000     0.335096270000    -1.05634    
H8       H      0.526711540000     0.974507185000     0.313998250000     0.162536   
H9       H      0.623778505000     0.970729025000     0.321701975000     0.224948   
H10      H      0.869171150000     0.649108000000     0.144248750000     0.078068   
H11      H      0.709595340000     0.654265600000     0.028493155000     0.032299   
H12      H      0.870105050000     0.589957300000     0.015935485000     0.012979   
H13      H      0.735043650000     0.549969765000     0.142229380000     0.077533   
H14      H      0.876961230000     0.635527880000     0.211963830000     0.090412   
H15      H      0.703213425000     0.663406820000     0.460524025000     0.041568   
H16      H      0.863339700000     0.597835965000     0.448015100000    -0.053742   
H17      H      0.743423150000     0.535161395000     0.209727300000     0.068158   
H18      H      0.776601000000     0.579665245000     0.354582965000    -0.45686    
H19      H      0.663538785000     0.672312485000     0.362296100000     0.107067   
H20      H      0.888228650000     0.701451400000     0.346190480000     0.091742   
H21      H      0.873197675000     0.768676250000     0.352202030000    -0.020812   
H22      H      0.950425565000     0.719287125000     0.294264700000     0.253812   
H23      H      0.933099330000     0.786115300000     0.296591820000     0.079528   
H24      H      0.968050350000     0.755133550000     0.334968850000    -0.601169   
H25      H      0.902898430000     0.871068420000     0.348925530000     0.080129   
H26      H      0.931108600000     0.929157825000     0.364980850000     0.03301    
H27      H      0.510047495000     0.916450450000     0.323912000000     0.02366    
H28      H      0.500675680000     0.860953150000     0.352783750000     0.034951   
H29      H      0.982166380000     0.860752550000     0.304056550000     0.069313   
H30      H      0.657359020000     0.803352350000     0.346991450000     0.144111   
H31      H      0.631268920000     0.753474300000     0.375632850000     0.115031   
H32      H      0.684115765000     0.790735425000     0.393244415000     0.123164   
H33      H      0.709522365000     0.955400885000     0.351283000000    -0.201067   
H34      H      0.720185850000     0.501058815000     0.387432450000    -0.399625   
H35      H      0.698522060000     0.521111905000     0.341483750000     0.783637   
H36      H      0.803309170000     0.609824525000     0.277367500000    -2.06516    
H37      H      0.857393400000     0.651738200000     0.282773600000     0.69498    
H38      H      0.844573350000     0.606229590000     0.318857250000    -16.325     
H39      H      0.957209650000     0.565016210000     0.306976950000    -0.377871   
H40      H      0.973832650000     0.503844915000     0.325282100000     0.086132   
H41      H      0.950965650000     0.510950805000     0.277612775000     0.098983   
C42      C      0.622089300000     0.511052915000     0.327125050000    -0.404718   
C43      C      0.924315950000     0.671245365000     0.330137730000     1.54443    
C44      C      0.969378050000     0.698466750000     0.337972150000    -1.14515    
C45      C      0.519135920000     0.673213170000     0.339447530000     0.793413   
C46      C      0.523625330000     0.620360680000     0.333003225000    -0.662572   
C47      C      0.976556450000     0.594562195000     0.325185565000     1.22651    
C48      C      0.572574710000     0.592209860000     0.333845250000     0.840509   
C49      C      0.573683025000     0.539173920000     0.326755730000    -0.07806    
C50      C      0.526531240000     0.514859970000     0.319322550000    -0.333827   
C51      C      0.978532200000     0.542382200000     0.318602235000     0.01069    
C52      C      0.620970495000     0.614604460000     0.341361100000    -1.83624    
C53      C      0.668716100000     0.535756300000     0.334602900000     0.987036   
C54      C      0.796920480000     0.608657590000     0.099454550000    -0.041304   
C55      C      0.793562400000     0.614636700000     0.066280100000     0.003006   
C56      C      0.777017850000     0.631270850000     0.407814115000    -0.487366   
C57      C      0.814240400000     0.577895300000     0.256538400000     0.910111   
C58      C      0.841436475000     0.624529580000     0.158577935000    -0.10719    
C59      C      0.743027730000     0.641468985000     0.010871200000    -0.020551   
C60      C      0.833333335000     0.605477295000     0.003825110000    -0.020011   
C61      C      0.765836050000     0.568889625000     0.157473060000    -0.112834   
C62      C      0.845947175000     0.616576160000     0.197017120000     0.100424   
C63      C      0.739063900000     0.645735460000     0.472081480000    -0.113569   
C64      C      0.829357900000     0.609728820000     0.465091100000    -0.13973    
C65      C      0.770312070000     0.560892345000     0.195914430000     0.145746   
C66      C      0.810027900000     0.585123235000     0.215997460000    -0.330102   
C67      C      0.781684050000     0.628582360000     0.448789180000     0.127292   
C68      C      0.801238270000     0.600866370000     0.138888985000     0.087994   
C69      C      0.789965000000     0.620794075000     0.026662915000    -0.013342   
C70      C      0.770262550000     0.809006480000     0.334102150000     0.322499   
C71      C      0.797815700000     0.906986325000     0.332912350000    -0.529428   
C72      C      0.786028175000     0.668345885000     0.317803025000    -2.24723    
C73      C      0.888507000000     0.517242310000     0.319654525000     5.02324    
C74      C      0.796971300000     0.720221370000     0.319250525000     1.24015    
C75      C      0.869608600000     0.967726620000     0.320779350000    -2.82584    
C76      C      0.758896000000     0.754879625000     0.335076600000    -0.636049   
C77      C      0.816366850000     0.958891780000     0.332783965000     2.32778    
C78      C      0.710566730000     0.737485275000     0.350933750000     0.585172   
C79      C      0.782498330000     0.999553550000     0.345109970000    -3.68734    
C80      C      0.700610070000     0.685841965000     0.350118220000    -0.700142   
C81      C      0.802470550000     0.548262655000     0.345252500000     9.26597    
C82      C      0.825056550000     0.632113380000     0.298147320000     9.07711    
C83      C      0.945637850000     0.525039255000     0.306635765000    -0.256407   
C84      C      0.883555950000     0.738645675000     0.331420050000     0.227063   
C85      C      0.937225550000     0.750563900000     0.313176650000    -0.018272   
C86      C      0.927256300000     0.903821350000     0.340345200000    -0.149735   
C87      C      0.983510300000     0.884237200000     0.329576400000    -0.073208   
C88      C      0.668470800000     0.773278700000     0.367628550000    -0.404982   
C89      C      0.724619400000     0.993494035000     0.357025100000     1.39128    
C90      C      0.723380820000     0.597813765000     0.333150200000    -1.0504     
C91      C      0.871319900000     0.609778105000     0.331582850000     46.4984    
C92      C      0.737581200000     0.651256770000     0.333806350000     1.66193    
C93      C      0.854395800000     0.557509960000     0.332067900000    -13.1145    
N94      N      0.666343065000     0.586141500000     0.341357700000     12.6594    
N95      N      0.929067200000     0.620639955000     0.324027120000    -4.9152     
N96      N      0.787603020000     0.830889970000     0.301869500000    -0.112757   
N97      N      0.801229100000     0.879096865000     0.301285925000     0.070516   
N98      N      0.780711100000     0.885127800000     0.365206570000     0.034369   
N99      N      0.767137550000     0.836883600000     0.365776050000    -0.129729   
O100     O      0.821347600000     0.635921075000     0.387769400000     1.61183    
O101     O      0.769910200000     0.571851985000     0.276410670000     0.490488   
O102     O      0.862364500000     0.578659830000     0.271113050000     0.538018   
O103     O      0.728893300000     0.629113210000     0.393067000000    -0.2627     
O104     O      0.673885330000     0.586764975000     0.328235750000    -14.2368    
O105     O      0.869521750000     0.634901525000     0.362229900000    -6.27543    
O106     O      0.759826800000     0.562818655000     0.338595550000    -4.28667    
O107     O      0.885682165000     0.630409720000     0.300410150000    -10.4616    
O108     O      0.844085950000     0.737530250000     0.303444200000    -0.517674   
O109     O      0.903393850000     0.928117350000     0.308946900000     0.526468   
Zn0      Zn     0.739923360000     0.588562250000     0.826297000000     3.36212    
Zn1      Zn     0.852894300000     0.623116730000     0.840328550000    -13.2305    
H2       H      0.624621415000     0.654179200000     0.847225430000     0.584882   
H3       H      0.885245200000     0.690317720000     0.828916950000    -0.250385   
H4       H      0.552895365000     0.696092410000     0.845592200000    -0.178344   
H5       H      0.965813700000     0.738815265000     0.842872400000     0.833797   
H6       H      0.943559950000     0.521848925000     0.812721350000    -0.762016   
H7       H      0.706964300000     0.515092225000     0.835096270000    -1.05634    
H8       H      0.526711540000     0.974507185000     0.813998250000     0.162536   
H9       H      0.623778505000     0.970729025000     0.821701975000     0.224948   
H10      H      0.869171150000     0.649108000000     0.644248750000     0.078068   
H11      H      0.709595340000     0.654265600000     0.528493155000     0.032299   
H12      H      0.870105050000     0.589957300000     0.515935485000     0.012979   
H13      H      0.735043650000     0.549969765000     0.642229380000     0.077533   
H14      H      0.876961230000     0.635527880000     0.711963830000     0.090412   
H15      H      0.703213425000     0.663406820000     0.960524025000     0.041568   
H16      H      0.863339700000     0.597835965000     0.948015100000    -0.053742   
H17      H      0.743423150000     0.535161395000     0.709727300000     0.068158   
H18      H      0.776601000000     0.579665245000     0.854582965000    -0.45686    
H19      H      0.663538785000     0.672312485000     0.862296100000     0.107067   
H20      H      0.888228650000     0.701451400000     0.846190480000     0.091742   
H21      H      0.873197675000     0.768676250000     0.852202030000    -0.020812   
H22      H      0.950425565000     0.719287125000     0.794264700000     0.253812   
H23      H      0.933099330000     0.786115300000     0.796591820000     0.079528   
H24      H      0.968050350000     0.755133550000     0.834968850000    -0.601169   
H25      H      0.902898430000     0.871068420000     0.848925530000     0.080129   
H26      H      0.931108600000     0.929157825000     0.864980850000     0.03301    
H27      H      0.510047495000     0.916450450000     0.823912000000     0.02366    
H28      H      0.500675680000     0.860953150000     0.852783750000     0.034951   
H29      H      0.982166380000     0.860752550000     0.804056550000     0.069313   
H30      H      0.657359020000     0.803352350000     0.846991450000     0.144111   
H31      H      0.631268920000     0.753474300000     0.875632850000     0.115031   
H32      H      0.684115765000     0.790735425000     0.893244415000     0.123164   
H33      H      0.709522365000     0.955400885000     0.851283000000    -0.201067   
H34      H      0.720185850000     0.501058815000     0.887432450000    -0.399625   
H35      H      0.698522060000     0.521111905000     0.841483750000     0.783637   
H36      H      0.803309170000     0.609824525000     0.777367500000    -2.06516    
H37      H      0.857393400000     0.651738200000     0.782773600000     0.69498    
H38      H      0.844573350000     0.606229590000     0.818857250000    -16.325     
H39      H      0.957209650000     0.565016210000     0.806976950000    -0.377871   
H40      H      0.973832650000     0.503844915000     0.825282100000     0.086132   
H41      H      0.950965650000     0.510950805000     0.777612775000     0.098983   
C42      C      0.622089300000     0.511052915000     0.827125050000    -0.404718   
C43      C      0.924315950000     0.671245365000     0.830137730000     1.54443    
C44      C      0.969378050000     0.698466750000     0.837972150000    -1.14515    
C45      C      0.519135920000     0.673213170000     0.839447530000     0.793413   
C46      C      0.523625330000     0.620360680000     0.833003225000    -0.662572   
C47      C      0.976556450000     0.594562195000     0.825185565000     1.22651    
C48      C      0.572574710000     0.592209860000     0.833845250000     0.840509   
C49      C      0.573683025000     0.539173920000     0.826755730000    -0.07806    
C50      C      0.526531240000     0.514859970000     0.819322550000    -0.333827   
C51      C      0.978532200000     0.542382200000     0.818602235000     0.01069    
C52      C      0.620970495000     0.614604460000     0.841361100000    -1.83624    
C53      C      0.668716100000     0.535756300000     0.834602900000     0.987036   
C54      C      0.796920480000     0.608657590000     0.599454550000    -0.041304   
C55      C      0.793562400000     0.614636700000     0.566280100000     0.003006   
C56      C      0.777017850000     0.631270850000     0.907814115000    -0.487366   
C57      C      0.814240400000     0.577895300000     0.756538400000     0.910111   
C58      C      0.841436475000     0.624529580000     0.658577935000    -0.10719    
C59      C      0.743027730000     0.641468985000     0.510871200000    -0.020551   
C60      C      0.833333335000     0.605477295000     0.503825110000    -0.020011   
C61      C      0.765836050000     0.568889625000     0.657473060000    -0.112834   
C62      C      0.845947175000     0.616576160000     0.697017120000     0.100424   
C63      C      0.739063900000     0.645735460000     0.972081480000    -0.113569   
C64      C      0.829357900000     0.609728820000     0.965091100000    -0.13973    
C65      C      0.770312070000     0.560892345000     0.695914430000     0.145746   
C66      C      0.810027900000     0.585123235000     0.715997460000    -0.330102   
C67      C      0.781684050000     0.628582360000     0.948789180000     0.127292   
C68      C      0.801238270000     0.600866370000     0.638888985000     0.087994   
C69      C      0.789965000000     0.620794075000     0.526662915000    -0.013342   
C70      C      0.770262550000     0.809006480000     0.834102150000     0.322499   
C71      C      0.797815700000     0.906986325000     0.832912350000    -0.529428   
C72      C      0.786028175000     0.668345885000     0.817803025000    -2.24723    
C73      C      0.888507000000     0.517242310000     0.819654525000     5.02324    
C74      C      0.796971300000     0.720221370000     0.819250525000     1.24015    
C75      C      0.869608600000     0.967726620000     0.820779350000    -2.82584    
C76      C      0.758896000000     0.754879625000     0.835076600000    -0.636049   
C77      C      0.816366850000     0.958891780000     0.832783965000     2.32778    
C78      C      0.710566730000     0.737485275000     0.850933750000     0.585172   
C79      C      0.782498330000     0.999553550000     0.845109970000    -3.68734    
C80      C      0.700610070000     0.685841965000     0.850118220000    -0.700142   
C81      C      0.802470550000     0.548262655000     0.845252500000     9.26597    
C82      C      0.825056550000     0.632113380000     0.798147320000     9.07711    
C83      C      0.945637850000     0.525039255000     0.806635765000    -0.256407   
C84      C      0.883555950000     0.738645675000     0.831420050000     0.227063   
C85      C      0.937225550000     0.750563900000     0.813176650000    -0.018272   
C86      C      0.927256300000     0.903821350000     0.840345200000    -0.149735   
C87      C      0.983510300000     0.884237200000     0.829576400000    -0.073208   
C88      C      0.668470800000     0.773278700000     0.867628550000    -0.404982   
C89      C      0.724619400000     0.993494035000     0.857025100000     1.39128    
C90      C      0.723380820000     0.597813765000     0.833150200000    -1.0504     
C91      C      0.871319900000     0.609778105000     0.831582850000     46.4984    
C92      C      0.737581200000     0.651256770000     0.833806350000     1.66193    
C93      C      0.854395800000     0.557509960000     0.832067900000    -13.1145    
N94      N      0.666343065000     0.586141500000     0.841357700000     12.6594    
N95      N      0.929067200000     0.620639955000     0.824027120000    -4.9152     
N96      N      0.787603020000     0.830889970000     0.801869500000    -0.112757   
N97      N      0.801229100000     0.879096865000     0.801285925000     0.070516   
N98      N      0.780711100000     0.885127800000     0.865206570000     0.034369   
N99      N      0.767137550000     0.836883600000     0.865776050000    -0.129729   
O100     O      0.821347600000     0.635921075000     0.887769400000     1.61183    
O101     O      0.769910200000     0.571851985000     0.776410670000     0.490488   
O102     O      0.862364500000     0.578659830000     0.771113050000     0.538018   
O103     O      0.728893300000     0.629113210000     0.893067000000    -0.2627     
O104     O      0.673885330000     0.586764975000     0.828235750000    -14.2368    
O105     O      0.869521750000     0.634901525000     0.862229900000    -6.27543    
O106     O      0.759826800000     0.562818655000     0.838595550000    -4.28667    
O107     O      0.885682165000     0.630409720000     0.800410150000    -10.4616    
O108     O      0.844085950000     0.737530250000     0.803444200000    -0.517674   
O109     O      0.903393850000     0.928117350000     0.808946900000     0.526468   


