data_I
_chemical_name_common  '/home/sibivarshan_m7/MOFDiff/MOFDiff/results/nh3_target_12.0mmol/cif/sample_1'
_cell_length_a 25.03146
_cell_length_b 28.37977
_cell_length_c 28.29520
_cell_angle_alpha 90.95193
_cell_angle_beta  90.64498
_cell_angle_gamma 89.85056
_space_group_name_H-M_alt      'P 1'


loop_
_space_group_symop_operation_xyz
  'x, y, z' 

loop_
_atom_site_label
_atom_site_fract_x
_atom_site_fract_y
_atom_site_fract_z
_atom_site_type_symbol
Zn0   0.7095623 0.59482604 0.7074831    Zn
Zn1   0.60336816 0.60407287 0.6802911    Zn
H2    0.061532132 0.72129077 0.2901021     H
H3    0.15969147 0.72682375 0.28037304     H
H4    0.22048253 0.68352675 0.33374807     H
H5    0.08482451 0.6308764 0.4085581     H
H6    0.024408372 0.6733035 0.35430995     H
H7    0.26130947 0.52135116 0.41481438     H
H8    0.40815553 0.4981713 0.53320557     H
H9    0.35350338 0.45609954 0.5901404     H
H10   0.25586918 0.4678741 0.591756     H
H11   0.21244194 0.5242591 0.5382693     H
H12   0.26400632 0.7231607 0.43575978     H
H13   0.23766825 0.8060808 0.45076713     H
H14   0.14941071 0.8247764 0.48524776     H
H15   0.08713958 0.76031214 0.5048114     H
H16   0.11267134 0.6771956 0.48955274     H
H17   0.34753188 0.6297211 0.47666547     H
H18   0.4119333 0.6660937 0.42447984     H
H19   0.47985572 0.6174481 0.38382575     H
H20   0.4815729 0.530634 0.39455706     H
H21   0.4168327 0.49331093 0.4463591     H
C22   0.24560115 0.6370992 0.53064173     C
C23   0.20428526 0.55960816 0.3463239     C
C24   0.14344467 0.7053806 0.30800295     C
C25   0.17780748 0.6807524 0.33814824     C
C26   0.1570016 0.65219676 0.37350446     C
C27   0.10149579 0.6508111 0.37997493     C
C28   0.06719225 0.6752467 0.34965685     C
C29   0.08813084 0.70233464 0.31352007     C
C30   0.20532818 0.64490575 0.45061707     C
C31   0.23543705 0.61823183 0.4831291     C
C32   0.2564281 0.5738452 0.46974313     C
C33   0.24547045 0.555663 0.42482552     C
C34   0.21379118 0.58072686 0.3929932     C
C35   0.19322947 0.6257396 0.40564328     C
C36   0.34163094 0.53560424 0.5011258     C
C37   0.36542976 0.5043164 0.5333661     C
C38   0.3346735 0.48042583 0.5660016     C
C39   0.27968216 0.48742816 0.56724674     C
C40   0.2553279 0.51927435 0.5367371     C
C41   0.28561875 0.5435838 0.50351673     C
C42   0.19024894 0.69438964 0.46183026     C
C43   0.22542234 0.7309954 0.45102236     C
C44   0.21056946 0.77789867 0.45931658     C
C45   0.16074689 0.78843766 0.47866744     C
C46   0.12568304 0.7520836 0.48976555     C
C47   0.14025757 0.7051251 0.4812601     C
C48   0.37662053 0.5583045 0.4658288     C
C49   0.3756569 0.6072701 0.45876133     C
C50   0.41269553 0.6283243 0.4292289     C
C51   0.45088693 0.6008318 0.40611163     C
C52   0.45180115 0.55211544 0.41211802     C
C53   0.41489938 0.5309826  0.44166     C
O54   0.19659014 0.5144302 0.34189993     O
O55   0.294317 0.6389821 0.5460138     O
O56   0.20568126 0.6518166 0.55560845     O
O57   0.20595433 0.5868032 0.31038004     O
H58   0.2461558 0.65098166 0.03777969     H
H59   0.35001096 0.4837892 0.9633943     H
H60   0.31836358 0.6259138 0.0055531263     H
H61   0.1870684 0.5247591 0.8829473     H
H62   0.12882805 0.77574986 0.9898487     H
H63   0.036134075 0.76741374 0.0043207407     H
H64   0.07090535 0.7278813 0.04350996     H
H65   0.04018304 0.7055671 0.9892284     H
H66   0.14496219 0.6111274 0.8113308     H
H67   0.13658677 0.54828835 0.81585926     H
H68   0.07932479 0.5853394 0.8059631     H
H69   0.089564964 0.5566701 0.8903931     H
H70   0.081210695 0.6168247 0.88566554     H
H71   0.14600575 0.7727302 0.90293926     H
H72   0.1986463 0.7362085 0.8787193     H
H73   0.14307171 0.754352 0.842236     H
H74   0.12983179 0.67481846 0.85989356     H
H75   0.08098541 0.70643413 0.89393955     H
H76   0.403973 0.59294856 0.015610576     H
H77   0.44078797 0.5327581 0.062146664     H
H78   0.3953636 0.49048463 0.03634572     H
H79   0.37063316 0.5362923 0.07601464     H
C80   0.25477225 0.46601614 0.924013     C
C81   0.20423643 0.7329001 0.044768214     C
C82   0.14526281 0.6763067 0.9362004     C
C83   0.18415822 0.69554764 0.013578773     C
C84   0.32417524 0.51445806 0.9626395     C
C85   0.34026128 0.5558362 0.98592013     C
C86   0.30506772 0.59409714 0.98746526     C
C87   0.25443867 0.59176403 0.96468204     C
C88   0.24180277 0.55252194 0.93617713     C
C89   0.21605107 0.6276492 0.96972334     C
C90   0.17417617 0.6328833 0.935901     C
C91   0.1626627 0.59392065 0.9050936     C
C92   0.19642395 0.55426157 0.9062285     C
C93   0.21766834 0.65704626 0.009404421     C
C94   0.1458804 0.70464414 0.9777652     C
C95   0.27439162 0.51206625 0.9394442     C
C96   0.06207771 0.73566884 0.0058574677     C
C97   0.110208906 0.5883554 0.87793934     C
C98   0.11849785 0.58308166 0.82458466     C
C99   0.124270536 0.6983802 0.8907583     C
C100  0.15493153 0.74312276 0.878269     C
C101  0.39971438 0.52792954 0.04766345     C
N102  0.11097205 0.7442618 0.98078275     N
N103  0.39150074 0.55896807 0.008159399     N
O104  0.28888264 0.4358191 0.90692645     O
O105  0.20445883 0.45617417 0.9303597     O
O106  0.2554382 0.7407583 0.04267609     O
O107  0.1710144 0.76111335 0.0661093     O
C108  0.20520535 0.9951443 0.21865901     C
C109  0.19776826 0.65571606 0.2425045     C
C110  0.20398426 0.9426147 0.22231258     C
C111  0.19886194 0.7082232 0.23879825     C
C112  0.20299856 0.8989099 0.22535977     C
C113  0.19979058 0.75194633 0.23571149     C
C114  0.20185302 0.8472023 0.22899397     C
C115  0.20090264 0.80364275 0.23205844     C
O116  0.15996309 0.018647552 0.21174349     O
O117  0.25151044 0.017626286 0.2224337     O
O118  0.20223713 0.6291192 0.20372945     O
O119  0.19243518 0.636313 0.28453937     O
Zn120 0.64153856 0.12683974 0.6839481    Zn
Zn121 0.7262639 0.066983774 0.7266753    Zn
Zn122 0.64551234 0.08549957 0.18787993    Zn
Zn123 0.75468683 0.11186634 0.21907677    Zn
Zn124 0.22989272 0.6150801 0.2956347    Zn
Zn125 0.18667403 0.583446 0.19983748    Zn
Zn126 0.18556535 0.5933817 0.6597806    Zn
Zn127 0.30421564 0.5974643 0.66100323    Zn
C128  0.7087846 0.10795148 0.124029994     C
C129  0.68117726 0.088095844 0.78767496     C
C130  0.70451224 0.10487881 0.07197869     C
C131  0.68544954 0.09116851 0.83972627     C
C132  0.7009558 0.10232093 0.028648615     C
C133  0.6890059 0.0937263 0.88305634     C
C134  0.6967591 0.09930259 0.97751755     C
C135  0.69320273 0.09674473 0.9341874     C
O136  0.75070965 0.12789617 0.14391923     O
O137  0.67061394 0.090707086 0.14988375     O
O138  0.7006164 0.051256027 0.7651675     O
O139  0.6579837 0.12223539 0.7644396     O
Zn140 0.20178203 0.15045677 0.21056595    Zn
Zn141 0.19359353 0.046963904 0.22469732    Zn
C142  0.19957772 0.48576134 0.24667543     C
C143  0.2002797 0.442505 0.24054834     C
C144  0.20182313 0.3486104 0.22731788     C
C145  0.20266129 0.2976793 0.22013295     C
C146  0.20336309 0.2544344 0.21400751     C
C147  0.19876535 0.5374253 0.2540589     C
C148  0.20418228 0.20278229 0.20662355     C
C149  0.20111084 0.39157358 0.23336555     C
O150  0.21983802 0.17545496 0.24100173     O
O151  0.18923408 0.18464111 0.16572863     O
O152  0.21371357 0.5555664 0.2949538     O
O153  0.18310961 0.56475246 0.21968068     O
C154  0.31381834 0.5591786 0.5038393     C
C155  0.22042282 0.65871835 0.46445838     C
C156  0.20412368 0.58208877 0.41346163     C
C157  0.26445362 0.6360285 0.49500564     C
C158  0.23369859 0.55902874 0.45483446     C
C159  0.2816589 0.6359432 0.39695498     C
C160  0.22175024 0.63521796 0.41317734     C
C161  0.28318548 0.58894664 0.47113457     C
C162  0.31577122 0.602469 0.4273984     C
C163  0.155279 0.6976237 0.3893496     C
C164  0.18965934 0.6549057 0.3300653     C
C165  0.18998371 0.6617075 0.37872037     C
C166  0.29848555 0.5547848 0.55041915     C
C167  0.33477515 0.5157709 0.4893119     C
C168  0.1657765 0.65664095 0.49077183     C
C169  0.16017236 0.6965098 0.5274605     C
C170  0.1436877 0.5685161 0.41467938     C
C171  0.11271392 0.5754283 0.36840025     C
H172  0.24933113 0.6320088 0.53108835     H
H173  0.2067884 0.55459094 0.48549455     H
H174  0.29902592 0.6604647 0.4988729     H
H175  0.24539825 0.5228685 0.4430573     H
H176  0.29773495 0.6724046 0.4001781     H
H177  0.28614324 0.6246999 0.35943514     H
H178  0.35377976 0.6200246 0.43821773     H
H179  0.32608894 0.5704925 0.40610304     H
H180  0.15224439 0.71843123 0.42143765     H
H181  0.21678156 0.63362056 0.30932802     H
H182  0.27947628 0.57999825 0.5734096     H
H183  0.3473856 0.5057072 0.4541965     H
H184  0.23140536 0.69651496 0.46081653     H
H185  0.2196568 0.56515086 0.38049623     H
H186  0.19270666 0.6949462 0.5543691     H
H187  0.16126359 0.7312584 0.51002717     H
H188  0.12130194 0.69325435 0.5456518     H
H189  0.13105908 0.65909225 0.46654505     H
H190  0.16136089 0.62267447 0.50922894     H
H191  0.0988755 0.6123504 0.3653249     H
H192  0.13729541 0.56513786 0.33750793     H
H193  0.07643908 0.5529657 0.36804003     H
H194  0.14159407 0.53012264 0.42184785     H
H195  0.12193235 0.58572406 0.44388634     H
N196  0.13039811 0.7084932 0.35000232     N
N197  0.15278116 0.68369114 0.31238952     N
N198  0.30661786 0.5107568 0.56234634     N
N199  0.32900092 0.48595476 0.5247336     N
C200  0.6780814 0.8979133 0.7045312     C
C201  0.5436464 0.7505295 0.68965983     C
C202  0.78325635 0.010622025 0.7161056     C
C203  0.58333266 0.78876317 0.6938846     C
C204  0.74359256 0.9723599 0.71182436     C
C205  0.6140633 0.8224319 0.6972908     C
C206  0.71289104 0.93866855 0.7084409     C
C207  0.648895 0.8631658 0.70122916     C
O208  0.4926151 0.7635576 0.68563575     O
O209  0.83427507 0.99758947 0.7204855     O
O210  0.55971664 0.70520616 0.6903697     O
O211  0.7671735 0.055940866 0.7157515     O
C212  0.6954075 0.09274062 0.2867868     C
C213  0.69561505 0.10287556 0.62475157     C
C214  0.6954287 0.094298735 0.33912045     C
C215  0.6955408 0.10128604 0.57241774     C
C216  0.6954372 0.095598534 0.3826376     C
C217  0.6954906 0.099974364 0.5289004     C
C218  0.6954415 0.09712307 0.43400532     C
C219  0.69545823 0.09842556 0.47753277     C
O220  0.73867434 0.104327954 0.26400796     O
O221  0.6521316 0.079777636 0.26351032     O
O222  0.6813704 0.14168173 0.6471325     O
O223  0.7095843 0.06536425 0.6484243     O
H224  0.6176633 0.6156457 0.75943106     H
H225  0.44230843 0.57468706 0.7764101     H
H226  0.4004151 0.52008367 0.59785783     H
H227  0.6548209 0.63209504 0.55498016     H
H228  0.2450281 0.7742195 0.6514686     H
H229  0.5478115 0.64818573 0.5673111     H
H230  0.48856962 0.66118824 0.60129905     H
H231  0.43363658 0.6156582 0.5418405     H
H232  0.25037232 0.52597123 0.6554583     H
H233  0.46855927 0.66454977 0.5162168     H
H234  0.49308595 0.605095 0.50742143     H
H235  0.33439142 0.70485795 0.59466976     H
H236  0.39223632 0.6680511 0.60436887     H
H237  0.438975 0.7347893 0.6450395     H
H238  0.41915712 0.7486742 0.5852374     H
H239  0.38146767 0.77215624 0.6344663     H
C240  0.1810576 0.5963735 0.6557074     C
C241  0.26640737 0.6454606 0.66039675     C
C242  0.5409264 0.59621966 0.6409473     C
C243  0.32274795 0.64623153 0.66372085     C
C244  0.5130931  0.60587 0.6828275     C
C245  0.3515249 0.6038259 0.66773313     C
C246  0.4558395 0.6063642 0.68043625     C
C247  0.40820697 0.6055781  0.67565     C
C248  0.68411607 0.60297877 0.6884185     C
C249  0.5406918 0.6131192 0.7257394     C
C250  0.32550427 0.5603004 0.66293824     C
C251  0.59636104 0.61068976 0.72625613     C
C252  0.2701739 0.5594603 0.6575071     C
C253  0.50783324 0.63475627 0.5774256     C
C254  0.47360155 0.6296617 0.53291655     C
C255  0.3685335 0.69791484 0.6191616     C
C256  0.40426618 0.7411459 0.621153     C
C257  0.6251305 0.60102606 0.68490905     C
C258  0.23991816 0.6010104 0.657211     C
C259  0.5969118 0.5906421 0.64199805     C
S260  0.23033321 0.69986224 0.66025156     S
S261  0.5066373 0.62559295 0.77902645     S
S262  0.36138314 0.5063855 0.6639612     S
S263  0.6297641 0.5691095 0.5903139     S
O264  0.15305603 0.62370074 0.6826111     O
O265  0.7121972 0.5734277 0.6640426     O
O266  0.15839268 0.5638685 0.6294494     O
O267  0.5452779 0.6409831 0.8172564     O
O268  0.46642613 0.6642535 0.77137554     O
O269  0.47491875 0.5767891 0.7964673     O
O270  0.38042018 0.4979036 0.71364844     O
O271  0.32667333 0.46595716 0.64780897     O
O272  0.7068605 0.63325995 0.7172043     O
O273  0.41480273 0.5093293 0.62861156     O
O274  0.6573435 0.5235112 0.6016743     O
O275  0.5918557 0.55964744 0.5497009     O
O276  0.67525554 0.608596 0.5733663     O
O277  0.19037597 0.69880366 0.6204007     O
O278  0.20139496 0.7058218 0.70616305     O
O279  0.26983988 0.74708533 0.6537822     O
O280  0.51239955 0.5903945 0.5991172     O
O281  0.35004184 0.6885531 0.66514146     O
H282  0.38768563 0.1523728 0.29413104     H
H283  0.28708836 0.005685702 0.25927615     H
H284  0.6467446 0.2674377 0.11345515     H
H285  0.5246993 0.27733037 0.2679284     H
H286  0.46492207 0.24440052 0.2812428     H
H287  0.5220049 0.24287455 0.3206919     H
H288  0.5160487 0.16896008 0.27253485     H
H289  0.57567436 0.2013602 0.2598639     H
H290  0.52550614 0.237339 0.18877496     H
H291  0.47069034 0.2012014 0.20078142     H
H292  0.30719015 0.19677895 0.43302754     H
H293  0.23796175 0.18146718 0.4215616     H
H294  0.27544314 0.15156002 0.46691278     H
H295  0.26702863 0.10012852 0.39642712     H
H296  0.3355012 0.11630073 0.40601534     H
H297  0.3270304 0.18017969 0.34701845     H
H298  0.2596244 0.16613351 0.3348558     H
H299  0.4783815 0.9781751 0.16869806     H
H300  0.60127133 0.049940675 0.0025796478     H
H301  0.38430047 0.0036728738 0.13527758     H
C302  0.53011954 0.08317176 0.1408079     C
C303  0.5140242 0.11806874 0.17360476     C
C304  0.46820542 0.10921038 0.20261836     C
C305  0.22800443 0.0665474 0.30857092     C
C306  0.2855961 0.07229858 0.29767442     C
C307  0.30829915 0.03804807 0.26746064     C
C308  0.35496134 0.04690106 0.24286854     C
C309  0.38276273 0.089068905 0.2519371     C
C310  0.3645672 0.12078251 0.28654182     C
C311  0.31594697 0.113377005 0.309656     C
C312  0.5398652 0.16228296 0.17573233     C
C313  0.5875334 0.16859888 0.1498233     C
C314  0.5746416 0.09112586 0.11205341     C
C315  0.42963603 0.100521915 0.22577275     C
C316  0.6075989 0.1310963 0.12118324     C
C317  0.66543454 0.12915733 0.107806966     C
C318   0.61522 0.21480165 0.15080154     C
C319  0.51493806 0.20279373 0.20390666     C
C320  0.5314363 0.20152532 0.2562487     C
C321  0.50928414 0.24423088 0.2830857     C
C322  0.29830533 0.15030238 0.34568658     C
C323  0.29555368 0.12994386 0.3955172     C
C324  0.27795467 0.16740228 0.4314004     C
C325  0.5004744 0.03800724 0.13687208     C
C326  0.5861974 0.057906654 0.0721363     C
C327  0.37004524 0.013528801 0.20463365     C
O328  0.20156124 0.10062623 0.32665232     O
O329  0.20400456 0.029988915 0.29269037     O
O330  0.6822676 0.092665955 0.08610517     O
O331  0.69879895 0.15974951 0.124172434     O
O332  0.62727594 0.2338732 0.18844388     O
O333  0.62809914 0.2361238 0.10826532     O
O334  0.47922876 0.026231186 0.09938562     O
O335  0.49788815 0.008733629 0.17601939     O
O336  0.59022343 0.015586068 0.07889331     O
O337  0.59334433 0.07563204 0.026836302     O
O338  0.37190664 0.9712544 0.2122157     O
O339  0.37857944 0.030165382 0.15916777     O
C340  0.66387874 0.2974217 0.7042826     C
C341  0.6648286 0.34015462 0.7015907     C
C342  0.66820097 0.4918829 0.6920332     C
C343  0.6605064 0.14569344 0.7138402     C
C344  0.66173536 0.20098577 0.71035725     C
C345  0.666972 0.43659058 0.6955161     C
C346  0.66268486 0.24370682 0.7076662     C
C347  0.66602254 0.39386955 0.69820714     C
O348  0.62398535 0.51878846 0.6990024     O
O349  0.7047219 0.118787885 0.706871     O
O350  0.7135421 0.5156211 0.6818738     O
O351  0.6151652 0.12195519 0.7239996     O
H352  0.86806494 0.91647494 0.10468169     H
H353  0.8111352 0.88906455 0.13092978     H
H354  0.8064134 0.9479895 0.108419225     H
H355  0.8668577 0.91311026 0.19700697     H
H356  0.8117645 0.9508642 0.19632193     H
H357  0.900854 0.2303208 0.36969128     H
H358  0.9507441 0.24110974 0.32577345     H
H359  0.886025 0.26949784 0.32333446     H
H360  0.87253344 0.21126166 0.26666063     H
H361  0.8484132 0.18319842 0.31968936     H
H362  0.056622863 0.16895516 0.18045379     H
H363  0.03612113 0.2210934 0.21136081     H
H364  0.105573654 0.21195622 0.19951507     H
H365  0.081006885 0.19896643 0.2827777     H
H366  0.11219597 0.14915252 0.25772035     H
H367  0.016587019 0.93436414 0.22613667     H
H368  0.9504734 0.91192544 0.2372256     H
H369  0.00015926361 0.8745846 0.20987193     H
H370  0.9398105 0.9002294 0.14728448     H
H371  0.002477169 0.9278083 0.14054397     H
H372  0.8447958 0.08960186 0.10422843     H
H373  0.82923955 0.0316168 0.08177059     H
H374  0.7759007 0.07250059 0.09488903     H
H375  0.78659517 0.010059856 0.15468776     H
H376  0.7918201 0.063637115 0.18085103     H
C377  0.9222776 0.15431294 0.29139727     C
C378  0.8482834 0.9418189 0.17636949     C
C379  0.8327286 0.9228602 0.1271647     C
C380  0.8842627 0.19574016 0.30082798     C
C381  0.9073434 0.23629235  0.33163     C
C382  0.07483983 0.16993648 0.2564288     C
C383  0.06781256 0.19416586 0.20894897     C
C384  0.966602 0.92711747 0.16328739     C
C385  0.98435163 0.9111226 0.21223105     C
C386  0.81296486 0.041076902 0.15659915     C
C387  0.8159931 0.06007616 0.10642012     C
C388  0.8412135 0.13317192 0.21107532     C
C389  0.055590272 0.06358456 0.204973     C
C390  0.9577255 0.14462318 0.3286912     C
C391  0.011884689 0.14315087 0.31825536     C
C392  0.027012706 0.14044334 0.27061936     C
C393  0.98859566 0.12117651 0.23768872     C
C394  0.9340833 0.13258189 0.24543327     C
C395  0.0013943911 0.08365194 0.20555738     C
C396  0.96022373 0.056900762 0.18324752     C
C397  0.906134 0.068474434 0.18912579     C
C398  0.89461625 0.11264913 0.21277896     C
C399  0.9722093 0.014705535 0.15889406     C
C400  0.940761 0.9755727 0.16614242     C
C401  0.8861403 0.9835818 0.17400564     C
C402  0.867934 0.0314597 0.17640018     C
I403  0.92903334 0.13787416 0.39933628     I
I404  0.069470406 0.14952649 0.37334055     I
I405  0.00068712234 0.019449562 0.08983228     I
O406  0.061753392 0.018207459 0.2070693     O
O407  0.82185394 0.14345278 0.25129074     O
O408  0.8143812 0.14002542 0.17147228     O
O409  0.095695496 0.09135657 0.20138611     O
loop_
_geom_bond_atom_site_label_1
_geom_bond_atom_site_label_2
_geom_bond_distance
_geom_bond_site_symmetry_2
_ccdc_geom_bond_type
Zn0   Zn1    2.77198       .     S
Zn0   O211  13.16722   1_565     S
Zn0   O265   1.36410       .     S
Zn0   O272   1.12251       .     S
Zn0   O350   2.35245       .     S
Zn1   Zn0    2.77198       .     S
Zn1   O136  19.30958   1_556     A
Zn1   O210   3.07837       .     A
Zn1   O348   2.53666       .     A
Zn1   O351  13.76072       .     A
H2    C29    1.08250       .     A
H3    C24    1.08221       .     S
H4    C25    1.08007       .     A
H5    C27    1.08275       .     A
H6    C28    1.08214       .     S
H7    C33    1.08489       .     A
H8    C37    1.08321       .     S
H9    C38    1.08259       .     A
H10   C39    1.08075       .     D
H11   C40    1.08367       .     S
H12   C43    1.08343       .     A
H13   C44    1.08226       .     A
H14   C45    1.08260       .     S
H15   C46    1.08230       .     S
H16   C47    1.08297       .     A
H17   C49    1.07387       .     S
H18   C50    1.08258       .     S
H19   C51    1.08064       .     S
H20   C52    1.08159       .     S
H21   C53    1.08043       .     S
C22   C31    1.45873       .     S
C22   O55    1.29100       .     S
C22   O56    1.29458       .     A
C23   C34    1.45841       .     A
C23   O54    1.30079       .     A
C23   O57    1.28801       .     A
C24   H3     1.08221       .     A
C24   C25    1.39860       .     A
C24   C29    1.39816       .     A
C25   H4     1.08007       .     A
C25   C24    1.39860       .     A
C25   C26    1.40345       .     S
C26   C25    1.40345       .     A
C26   C27    1.40418       .     A
C26   C35    1.48784       .     S
C27   H5     1.08275       .     A
C27   C26    1.40418       .     A
C27   C28    1.39793       .     S
C28   H6     1.08214       .     A
C28   C27    1.39793       .     S
C28   C29    1.39695       .     A
C29   H2     1.08250       .     A
C29   C24    1.39816       .     S
C29   C28    1.39695       .     S
C30   C31    1.41135       .     A
C30   C35    1.40575       .     S
C30   C42    1.48339       .     D
C31   C22    1.45873       .     S
C31   C30    1.41135       .     A
C31   C32    1.41121       .     S
C32   C31    1.41121       .     S
C32   C33    1.38849       .     S
C32   C41    1.48087       .     S
C33   H7     1.08489       .     S
C33   C32    1.38849       .     S
C33   C34    1.39582       .     S
C34   C23    1.45841       .     A
C34   C33    1.39582       .     A
C34   C35    1.41790       .     A
C35   C26    1.48784       .     A
C35   C30    1.40575       .     A
C35   C34    1.41790       .     S
C36   C37    1.40976       .     A
C36   C41    1.42184       .     A
C36   C48    1.49118       .     S
C37   H8     1.08321       .     A
C37   C36    1.40976       .     S
C37   C38    1.39451       .     A
C38   H9     1.08259       .     D
C38   C37    1.39451       .     S
C38   C39    1.39103       .     A
C39   H10    1.08075       .     A
C39   C38    1.39103       .     S
C39   C40    1.39460       .     S
C40   H11    1.08367       .     A
C40   C39    1.39460       .     S
C40   C41    1.40525       .     S
C41   C32    1.48087       .     S
C41   C36    1.42184       .     S
C41   C40    1.40525       .     S
C42   C30    1.48339       .     S
C42   C43    1.40333       .     S
C42   C47    1.40318       .     A
C43   H12    1.08343       .     A
C43   C42    1.40333       .     A
C43   C44    1.39791       .     A
C44   H13    1.08226       .     A
C44   C43    1.39791       .     A
C44   C45    1.39735       .     A
C45   H14    1.08260       .     A
C45   C44    1.39735       .     A
C45   C46    1.39825       .     S
C46   H15    1.08230       .     A
C46   C45    1.39825       .     A
C46   C47    1.39850       .     S
C47   H16    1.08297       .     A
C47   C42    1.40318       .     A
C47   C46    1.39850       .     S
C48   C36    1.49118       .     A
C48   C49    1.40734       .     S
C48   C53    1.40722       .     A
C49   H17    1.07387       .     A
C49   C48    1.40734       .     S
C49   C50    1.39706       .     S
C50   H18    1.08258       .     A
C50   C49    1.39706       .     S
C50   C51    1.39419       .     D
C51   H19    1.08064       .     S
C51   C50    1.39419       .     A
C51   C52    1.39586       .     S
C52   H20    1.08159       .     S
C52   C51    1.39586       .     S
C52   C53    1.39591       .     S
C53   H21    1.08043       .     S
C53   C48    1.40722       .     S
C53   C52    1.39591       .     S
O54   C23    1.30079       .     S
O54   Zn125  4.50471       .     S
O55   C22    1.29100       .     S
O55   Zn127  3.48477       .     A
O56   C22    1.29458       .     A
O56   Zn126  3.44849       .     S
O57   C23    1.28801       .     A
O57   Zn125  3.15937       .     S
H58   C93    1.08342       .     A
H59   C84    1.08333       .     D
H60   C86    1.08185   1_554     S
H61   C92    1.08122       .     S
H62   N102   1.02763       .     D
H63   C96    1.11035       .     A
H64   C96    1.11130       .     A
H65   C96    1.11123   1_556     S
H66   C98    1.10961       .     S
H67   C98    1.11044       .     A
H68   C98    1.11013       .     A
H69   C97    1.10311       .     A
H70   C97    1.10549       .     A
H71   C100   1.10737       .     S
H72   C100   1.11116       .     A
H73   C100   1.11026       .     A
H74   C99    1.10093       .     S
H75   C99    1.11109       .     S
H76   N103   1.03210       .     S
H77   C101   1.11048       .     S
H78   C101   1.11005       .     A
H79   C101   1.11161       .     S
C80   C95    1.45580       .     A
C80   O104   1.29958       .     A
C80   O105   1.30575       .     A
C81   C83    1.45494       .     S
C81   O106   1.30365       .     S
C81   O107   1.29964       .     S
C82   C90    1.42748       .     S
C82   C94    1.41365       .     S
C82   C99    1.52697       .     S
C83   C81    1.45494       .     S
C83   C93    1.38008       .     S
C83   C94    1.41320   1_554     S
C84   H59    1.08333       .     S
C84   C85    1.39493       .     S
C84   C95    1.40314       .     S
C85   C84    1.39493       .     S
C85   C86    1.39690       .     S
C85   N103   1.42460   1_556     S
C86   H60    1.08185   1_556     S
C86   C85    1.39690       .     S
C86   C87    1.41658       .     S
C87   C86    1.41658       .     S
C87   C88    1.39897       .     S
C87   C89    1.40499       .     S
C88   C87    1.39897       .     S
C88   C92    1.41075       .     A
C88   C95    1.41036       .     A
C89   C87    1.40499       .     S
C89   C90    1.42055       .     A
C89   C93    1.38793   1_556     S
C90   C82    1.42748       .     A
C90   C89    1.42055       .     D
C90   C91    1.42464       .     S
C91   C90    1.42464       .     S
C91   C92    1.40628       .     D
C91   C97    1.52104       .     A
C92   H61    1.08122       .     A
C92   C88    1.41075       .     S
C92   C91    1.40628       .     S
C93   H58    1.08342       .     A
C93   C83    1.38008       .     A
C93   C89    1.38793   1_554     A
C94   C82    1.41365       .     A
C94   C83    1.41319   1_556     S
C94   N102   1.42420       .     A
C95   C80    1.45580       .     A
C95   C84    1.40314       .     S
C95   C88    1.41036       .     S
C96   H63    1.11035       .     S
C96   H64    1.11130       .     S
C96   H65    1.11123   1_554     A
C96   N102   1.44486   1_554     S
C97   H69    1.10311       .     A
C97   H70    1.10549       .     A
C97   C91    1.52104       .     A
C97   C98    1.53100       .     S
C98   H66    1.10961       .     S
C98   H67    1.11044       .     S
C98   H68    1.11013       .     S
C98   C97    1.53100       .     S
C99   H74    1.10093       .     S
C99   H75    1.11109       .     S
C99   C82    1.52697       .     S
C99   C100   1.53374       .     S
C100  H71    1.10737       .     S
C100  H72    1.11116       .     S
C100  H73    1.11026       .     S
C100  C99    1.53374       .     S
C101  H77    1.11048       .     S
C101  H78    1.11005       .     S
C101  H79    1.11161       .     D
C101  N103   1.44714       .     S
N102  H62    1.02763       .     S
N102  C94    1.42420       .     T
N102  C96    1.44486   1_556     S
N103  H76    1.03210       .     T
N103  C85    1.42460   1_554     S
N103  C101   1.44714       .     T
O104  C80    1.29958       .     S
O104  Zn127  8.41083       .     D
O105  C80    1.30575       .     S
O105  Zn126  8.65456       .     D
O106  C81    1.30365       .     S
O106  Zn125  6.59860       .     S
O107  C81    1.29964       .     T
O107  Zn141  9.22079   1_565     S
C108  C110   1.49649       .     T
C108  O116   1.32707   1_565     S
C108  O117   1.32694   1_565     T
C109  C111   1.49591       .     S
C109  O118   1.32695       .     D
C109  O119   1.32718       .     S
C110  C108   1.49649       .     S
C110  C112   1.24508       .     S
C111  C109   1.49591       .     S
C111  C113   1.24566       .     S
C112  C110   1.24508       .     S
C112  C114   1.47313       .     S
C113  C111   1.24566       .     S
C113  C115   1.47284       .     S
C114  C112   1.47313       .     D
C114  C115   1.24099       .     S
C115  C113   1.47284       .     S
C115  C114   1.24099       .     T
O116  C108   1.32707   1_545     S
O116  Zn140  3.88783       .     T
O117  C108   1.32694   1_545     S
O117  Zn141  1.67126       .     T
O118  C109   1.32695       .     S
O118  Zn124  2.71899       .     D
O119  C109   1.32718       .     S
O119  Zn124  1.15651       .     D
Zn120 Zn121  2.97266       .     S
Zn120 O139   2.31563       .     S
Zn120 N198  14.17582       .     T
Zn120 N199  13.62658       .     S
Zn120 O222   1.51553       .     T
Zn121 Zn120  2.97266       .     S
Zn121 O138   1.35315       .     T
Zn121 N197  19.17544   1_645     S
Zn121 O223   2.24826       .     D
Zn121 O349   1.66813       .     S
Zn122 Zn123  2.95664       .     S
Zn122 O137   1.26233       .     S
Zn122 O221   2.15331       .     D
Zn122 O330   3.04316       .     S
Zn122 O408   4.53653       .     S
Zn123 Zn122  2.95664       .     T
Zn123 N196  15.27357   1_645     S
Zn123 O220   1.35782       .     T
Zn123 O331   3.32288       .     S
Zn123 O407   2.09937       .     T
Zn124 O118   2.71899       .     S
Zn124 O119   1.15651       .     D
Zn124 Zn125  3.03016       .     S
Zn124 O152   1.73763       .     D
Zn124 O328  13.80993   1_565     S
Zn125 O54    4.50471       .     S
Zn125 O57    3.15937       .     T
Zn125 O106   6.59860       .     S
Zn125 Zn124  3.03016       .     T
Zn125 O153   0.78481       .     S
Zn126 O56    3.44849       .     T
Zn126 O105   8.65456       .     S
Zn126 Zn127  2.97234       .     D
Zn126 O264   1.34521       .     S
Zn126 O266   1.36626       .     S
Zn127 O55    3.48477       .     S
Zn127 O104   8.41083       .     S
Zn127 Zn126  2.97234       .     S
Zn127 O208   6.69905       .     S
Zn127 O209  16.40940   1_455     S
C128  C130   1.47663       .     D
C128  O136   1.31059       .     S
C128  O137   1.31059       .     S
C129  C131   1.47663       .     S
C129  O138   1.31059       .     S
C129  O139   1.31059       .     S
C130  C128   1.47663       .     S
C130  C132   1.22922       .     S
C131  C129   1.47663       .     S
C131  C133   1.22922       .     S
C132  C130   1.22922       .     S
C132  C134   1.45052   1_554     S
C133  C131   1.22922       .     D
C133  C135   1.45052       .     S
C134  C132   1.45052   1_556     S
C134  C135   1.22922       .     S
C135  C133   1.45052       .     S
C135  C134   1.22922       .     S
O136  Zn1   19.30958   1_554     S
O136  C128   1.31059       .     S
O137  Zn122  1.26233       .     S
O137  C128   1.31059       .     S
O138  Zn121  1.35315       .     S
O138  C129   1.31059       .     S
O139  Zn120  2.31563       .     S
O139  C129   1.31059       .     S
Zn140 O116   3.88783       .     S
Zn140 Zn141  2.97867       .     D
Zn140 O150   1.19241       .     S
Zn140 O151   1.63699       .     S
Zn140 O409   3.15048       .     S
Zn141 O107   9.22079   1_545     S
Zn141 O117   1.67126       .     S
Zn141 Zn140  2.97867       .     S
Zn141 O329   2.00503       .     S
Zn141 O406   3.43064       .     S
C142  C143   1.23704       .     S
C142  C147   1.47770       .     S
C143  C142   1.23704       .     S
C143  C149   1.45642       .     S
C144  C145   1.45642       .     D
C144  C149   1.22853       .     S
C145  C144   1.45642       .     S
C145  C146   1.23671       .     S
C146  C145   1.23671       .     S
C146  C148   1.47737       .     S
C147  C142   1.47770       .     S
C147  O152   1.30976       .     S
C147  O153   1.31002       .     S
C148  C146   1.47737       .     D
C148  O150   1.31002       .     S
C148  O151   1.30976       .     S
C149  C143   1.45642       .     S
C149  C144   1.22853       .     S
O150  Zn140  1.19241       .     S
O150  C148   1.31002       .     S
O151  Zn140  1.63699       .     S
O151  C148   1.30976       .     S
O152  Zn124  1.73763       .     S
O152  C147   1.30976       .     S
O153  Zn125  0.78481       .     S
O153  C147   1.31002       .     D
C154  C161   1.47127       .     S
C154  C166   1.38457       .     S
C154  C167   1.39513       .     S
C155  C157   1.53942       .     S
C155  C160   1.58750       .     S
C155  C168   1.56643       .     S
C155  H184   1.11474       .     S
C156  C158   1.53303       .     S
C156  C160   1.57230       .     S
C156  C170   1.56294       .     S
C156  H185   1.11561       .     S
C157  C155   1.53942       .     S
C157  C161   1.56054       .     S
C157  H172   1.10067       .     S
C157  H174   1.11368       .     D
C158  C156   1.53303       .     S
C158  C161   1.56451       .     S
C158  H173   1.11330       .     S
C158  H175   1.11320       .     S
C159  C160   1.57350       .     S
C159  C162   1.54273       .     S
C159  H176   1.11319       .     S
C159  H177   1.11028       .     S
C160  C155   1.58750       .     S
C160  C156   1.57230       .     S
C160  C159   1.57350       .     S
C160  C165   1.46689       .     S
C161  C154   1.47127       .     D
C161  C157   1.56054       .     S
C161  C158   1.56451       .     S
C161  C162   1.54408       .     D
C162  C159   1.54273       .     S
C162  C161   1.54408       .     S
C162  H178   1.11264       .     T
C162  H179   1.11239       .     S
C163  C165   1.36936       .     T
C163  H180   1.07811       .     S
C163  N196   1.31048       .     T
C164  C165   1.38693       .     S
C164  H181   1.07943       .     D
C164  N197   1.33000       .     S
C165  C160   1.46689       .     D
C165  C163   1.36936       .     S
C165  C164   1.38693       .     S
C166  C154   1.38457       .     T
C166  H182   1.07300       .     S
C166  N198   1.31443       .     T
C167  C154   1.39513       .     S
C167  H183   1.07963       .     T
C167  N199   1.33173       .     S
C168  C155   1.56643       .     D
C168  C169   1.53003       .     S
C168  H189   1.10355       .     D
C168  H190   1.11030       .     S
C169  C168   1.53003       .     S
C169  H186   1.10989       .     T
C169  H187   1.11049       .     S
C169  H188   1.11063       .     T
C170  C156   1.56294       .     S
C170  C171   1.52945       .     T
C170  H194   1.11310       .     S
C170  H195   1.10152       .     D
C171  C170   1.52945       .     S
C171  H191   1.10724       .     D
C171  H192   1.10934       .     S
C171  H193   1.11066       .     S
H172  C157   1.10067       .     T
H173  C158   1.11330       .     S
H174  C157   1.11368       .     T
H175  C158   1.11320       .     S
H176  C159   1.11319       .     T
H177  C159   1.11028       .     S
H178  C162   1.11264       .     D
H179  C162   1.11239       .     S
H180  C163   1.07811       .     D
H181  C164   1.07943       .     S
H182  C166   1.07300       .     S
H183  C167   1.07963       .     S
H184  C155   1.11474       .     S
H185  C156   1.11561       .     S
H186  C169   1.10989       .     S
H187  C169   1.11049       .     A
H188  C169   1.11063       .     A
H189  C168   1.10355       .     S
H190  C168   1.11030       .     S
H191  C171   1.10724       .     A
H192  C171   1.10934       .     A
H193  C171   1.11066       .     S
H194  C170   1.11310       .     A
H195  C170   1.10152       .     S
N196  Zn123 15.27357   1_465     A
N196  C163   1.31048       .     S
N196  N197   1.38870       .     S
N197  Zn121 19.17544   1_465     S
N197  C164   1.33000       .     S
N197  N196   1.38870       .     S
N198  Zn120 14.17582       .     S
N198  C166   1.31443       .     S
N198  N199   1.38870       .     S
N199  Zn120 13.62658       .     S
N199  C167   1.33173       .     S
N199  N198   1.38870       .     S
C200  C206   1.45192       .     S
C200  C207   1.23048       .     T
C201  C203   1.47551       .     S
C201  O208   1.33306       .     S
C201  O210   1.34710       .     S
C202  C204   1.47583   1_545     S
C202  O209   1.33363   1_545     S
C202  O211   1.34683       .     S
C203  C201   1.47551       .     S
C203  C205   1.23009       .     S
C204  C202   1.47583   1_565     S
C204  C206   1.23009       .     S
C205  C203   1.23009       .     S
C205  C207   1.45182       .     S
C206  C200   1.45192       .     A
C206  C204   1.23009       .     A
C207  C200   1.23048       .     S
C207  C205   1.45182       .     S
O208  Zn127  6.69905       .     A
O208  C201   1.33306       .     A
O209  Zn127 16.40940   1_655     S
O209  C202   1.33363   1_565     S
O210  Zn1    3.07837       .     A
O210  C201   1.34710       .     S
O211  Zn0   13.16722   1_545     A
O211  C202   1.34683       .     S
C212  C214   1.48071       .     S
C212  O220   1.31192       .     S
C212  O221   1.31169       .     S
C213  C215   1.48072       .     D
C213  O222   1.31184       .     S
C213  O223   1.31176       .     D
C214  C212   1.48071       .     S
C214  C216   1.23126       .     S
C215  C213   1.48072       .     S
C215  C217   1.23126       .     S
C216  C214   1.23126       .     S
C216  C218   1.45338       .     S
C217  C215   1.23126       .     A
C217  C219   1.45338       .     A
C218  C216   1.45338       .     S
C218  C219   1.23155       .     S
C219  C217   1.45338       .     A
C219  C218   1.23155       .     A
O220  Zn123  1.35782       .     S
O220  C212   1.31192       .     A
O221  Zn122  2.15331       .     S
O221  C212   1.31169       .     A
O222  Zn120  1.51553       .     S
O222  C213   1.31184       .     S
O223  Zn121  2.24826       .     S
O223  C213   1.31176       .     S
H224  C251   1.08166       .     S
H225  O269   0.99028       .     S
H226  O273   0.99059       .     S
H227  O276   0.99035       .     S
H228  O279   0.99060       .     S
H229  C253   1.11385       .     S
H230  C253   1.11361       .     S
H231  C254   1.11066       .     S
H232  C252   1.07345       .     T
H233  C254   1.11045       .     S
H234  C254   1.11076       .     S
H235  C255   1.11346       .     S
H236  C255   1.11207       .     S
H237  C256   1.11094       .     S
H238  C256   1.11062       .     S
H239  C256   1.11054       .     S
C240  C258   1.47964       .     S
C240  O264   1.28911       .     S
C240  O266   1.30205       .     S
C241  C243   1.41256       .     S
C241  C258   1.42771       .     S
C241  S260   1.78659       .     A
C242  C244   1.40409       .     A
C242  C259   1.40993       .     S
C242  O280   1.38318       .     S
C243  C241   1.41256       .     A
C243  C245   1.40651       .     A
C243  O281   1.38312       .     S
C244  C242   1.40409       .     S
C244  C246   1.43402       .     A
C244  C249   1.40265       .     S
C245  C243   1.40651       .     A
C245  C247   1.43478       .     S
C245  C250   1.40182       .     S
C246  C244   1.43402       .     S
C246  C247   1.19869       .     S
C247  C245   1.43478       .     D
C247  C246   1.19869       .     S
C248  C257   1.47984       .     S
C248  O265   1.28909       .     D
C248  O272   1.30189       .     S
C249  C244   1.40265       .     S
C249  C251   1.39493       .     S
C249  S261   1.77058       .     S
C250  C245   1.40182       .     S
C250  C252   1.39200       .     D
C250  S262   1.77266       .     S
C251  H224   1.08166       .     A
C251  C249   1.39493       .     A
C251  C257   1.40350       .     D
C252  H232   1.07345       .     S
C252  C250   1.39200       .     A
C252  C258   1.39987       .     A
C253  H229   1.11385       .     S
C253  H230   1.11361       .     S
C253  C254   1.52036       .     A
C253  O280   1.41356       .     A
C254  H231   1.11066       .     S
C254  H233   1.11045       .     S
C254  H234   1.11076       .     S
C254  C253   1.52036       .     S
C255  H235   1.11346       .     D
C255  H236   1.11207       .     S
C255  C256   1.52011       .     S
C255  O281   1.41533       .     S
C256  H237   1.11094       .     S
C256  H238   1.11062       .     S
C256  H239   1.11054       .     S
C256  C255   1.52011       .     S
C257  C248   1.47984       .     S
C257  C251   1.40350       .     T
C257  C259   1.42474       .     S
C258  C240   1.47964       .     S
C258  C241   1.42771       .     S
C258  C252   1.39987       .     D
C259  C242   1.40993       .     S
C259  C257   1.42474       .     A
C259  S263   1.78412       .     A
S260  C241   1.78659       .     S
S260  O277   1.49879       .     A
S260  O278   1.50138       .     A
S260  O279   1.68127       .     S
S261  C249   1.77058       .     A
S261  O267   1.50312       .     S
S261  O268   1.50367       .     A
S261  O269   1.68212       .     S
S262  C250   1.77266       .     S
S262  O270   1.50239       .     S
S262  O271   1.50300       .     S
S262  O273   1.68194       .     S
S263  C259   1.78412       .     S
S263  O274   1.50290       .     S
S263  O275   1.50320       .     S
S263  O276   1.67905       .     D
O264  Zn126  1.34521       .     S
O264  C240   1.28911       .     S
O265  Zn0    1.36410       .     S
O265  C248   1.28909       .     S
O266  Zn126  1.36626       .     D
O266  C240   1.30205       .     S
O267  S261   1.50312       .     S
O268  S261   1.50367       .     S
O269  H225   0.99028       .     S
O269  S261   1.68212       .     S
O270  S262   1.50239       .     D
O271  S262   1.50300       .     S
O272  Zn0    1.12251       .     A
O272  C248   1.30189       .     A
O273  H226   0.99059       .     D
O273  S262   1.68194       .     S
O274  S263   1.50290       .     A
O275  S263   1.50320       .     A
O276  H227   0.99035       .     S
O276  S263   1.67905       .     S
O277  S260   1.49879       .     A
O278  S260   1.50138       .     A
O279  H228   0.99060       .     S
O279  S260   1.68127       .     S
O280  C242   1.38318       .     S
O280  C253   1.41356       .     S
O281  C243   1.38312       .     D
O281  C255   1.41533       .     S
H282  C310   1.08548       .     S
H283  C307   1.08248       .     S
H284  O333   1.01264       .     S
H285  C321   1.11095       .     S
H286  C321   1.11109       .     S
H287  C321   1.10851       .     S
H288  C320   1.11124       .     S
H289  C320   1.11091       .     T
H290  C319   1.11009       .     S
H291  C319   1.11109       .     S
H292  C324   1.11080       .     S
H293  C324   1.11100       .     D
H294  C324   1.11012       .     S
H295  C323   1.10939       .     A
H296  C323   1.11047       .     A
H297  C322   1.11305       .     S
H298  C322   1.10855       .     A
H299  O335   1.01361   1_565     A
H300  O337   1.01377       .     S
H301  O339   1.01364       .     A
C302  C303   1.40717       .     S
C302  C314   1.40810       .     A
C302  C325   1.48470       .     S
C303  C302   1.40717       .     S
C303  C304   1.44295       .     S
C303  C312   1.41328       .     S
C304  C303   1.44295       .     S
C304  C315   1.20124       .     S
C305  C306   1.48756       .     S
C305  O328   1.27401       .     S
C305  O329   1.27316       .     D
C306  C305   1.48756       .     S
C306  C307   1.40680       .     S
C306  C311   1.42720       .     S
C307  H283   1.08248       .     D
C307  C306   1.40680       .     S
C307  C308   1.39184       .     S
C308  C307   1.39184       .     T
C308  C309   1.40441       .     S
C308  C327   1.47759       .     T
C309  C308   1.40441       .     S
C309  C310   1.39816       .     T
C309  C315   1.43524       .     S
C310  H282   1.08548       .     D
C310  C309   1.39816       .     S
C310  C311   1.40603       .     D
C311  C306   1.42720       .     S
C311  C310   1.40603       .     S
C311  C322   1.51814       .     T
C312  C303   1.41328       .     S
C312  C313   1.42073       .     T
C312  C319   1.52435       .     S
C313  C312   1.42073       .     T
C313  C316   1.42108       .     S
C313  C318   1.48441       .     D
C314  C302   1.40810       .     S
C314  C316   1.42282       .     S
C314  C326   1.48953       .     S
C315  C304   1.20124       .     S
C315  C309   1.43524       .     S
C316  C313   1.42108       .     S
C316  C314   1.42282       .     S
C316  C317   1.50112       .     D
C317  C316   1.50112       .     S
C317  O330   1.26867       .     S
C317  O331   1.28352       .     S
C318  C313   1.48441       .     S
C318  O332   1.22185       .     S
C318  O333   1.39737       .     S
C319  H290   1.11009       .     S
C319  H291   1.11109       .     S
C319  C312   1.52435       .     S
C319  C320   1.53402       .     S
C320  H288   1.11124       .     S
C320  H289   1.11091       .     S
C320  C319   1.53402       .     S
C320  C321   1.52590       .     S
C321  H285   1.11095       .     S
C321  H286   1.11109       .     S
C321  H287   1.10851       .     A
C321  C320   1.52590       .     A
C322  H297   1.11305       .     A
C322  H298   1.10855       .     A
C322  C311   1.51814       .     A
C322  C323   1.53494       .     A
C323  H295   1.10939       .     S
C323  H296   1.11047       .     S
C323  C322   1.53494       .     S
C323  C324   1.52539       .     S
C324  H292   1.11080       .     A
C324  H293   1.11100       .     A
C324  H294   1.11012       .     S
C324  C323   1.52539       .     S
C325  C302   1.48470       .     S
C325  O334   1.22312       .     A
C325  O335   1.39779       .     A
C326  C314   1.48953       .     S
C326  O336   1.22303       .     A
C326  O337   1.39823       .     S
C327  C308   1.47759       .     A
C327  O338   1.22295   1_545     S
C327  O339   1.39658       .     A
O328  Zn124 13.80993   1_545     A
O328  C305   1.27401       .     A
O329  Zn141  2.00503       .     A
O329  C305   1.27316       .     S
O330  Zn122  3.04316       .     S
O330  C317   1.26867       .     S
O331  Zn123  3.32288       .     D
O331  C317   1.28352       .     S
O332  C318   1.22185       .     S
O333  H284   1.01264       .     S
O333  C318   1.39737       .     S
O334  C325   1.22312       .     S
O335  H299   1.01361   1_545     S
O335  C325   1.39779       .     S
O336  C326   1.22303       .     S
O337  H300   1.01377       .     S
O337  C326   1.39823       .     S
O338  C327   1.22295   1_565     S
O339  H301   1.01364       .     S
O339  C327   1.39658       .     S
C340  C341   1.21671       .     D
C340  C346   1.52940       .     S
C341  C340   1.21671       .     S
C341  C347   1.52940       .     S
C342  C345   1.57431       .     S
C342  O348   1.35735       .     S
C342  O350   1.35734       .     S
C343  C344   1.57431       .     S
C343  O349   1.35735       .     S
C343  O351   1.35734       .     S
C344  C343   1.57431       .     S
C344  C346   1.21638       .     S
C345  C342   1.57431       .     S
C345  C347   1.21637       .     S
C346  C340   1.52940       .     S
C346  C344   1.21638       .     S
C347  C341   1.52940       .     S
C347  C345   1.21637       .     A
O348  Zn1    2.53666       .     A
O348  C342   1.35735       .     A
O349  Zn121  1.66813       .     A
O349  C343   1.35735       .     A
O350  Zn0    2.35245       .     A
O350  C342   1.35734       .     S
O351  Zn1   13.76072       .     S
O351  C343   1.35734       .     S
H352  C379   1.10811       .     S
H353  C379   1.10941       .     A
H354  C379   1.10729       .     A
H355  C378   1.10846       .     S
H356  C378   1.10717       .     S
H357  C381   1.10683       .     S
H358  C381   1.10994       .     A
H359  C381   1.10897       .     A
H360  C380   1.10543       .     S
H361  C380   1.11154       .     A
H362  C383   1.10328       .     S
H363  C383   1.10194       .     A
H364  C383   1.11006       .     S
H365  C382   1.11179       .     A
H366  C382   1.10485       .     A
H367  C385   1.10813   1_455     A
H368  C385   1.11027       .     A
H369  C385   1.11014   1_455     S
H370  C384   1.10518       .     S
H371  C384   1.11106   1_455     S
H372  C387   1.10981       .     D
H373  C387   1.11078       .     S
H374  C387   1.11020       .     S
H375  C386   1.10187       .     S
H376  C386   1.07367       .     S
C377  C380   1.53245       .     S
C377  C390   1.40134       .     S
C377  C394   1.46294       .     S
C378  H355   1.10846       .     S
C378  H356   1.10717       .     S
C378  C379   1.53084       .     S
C378  C401   1.52221       .     S
C379  H352   1.10811       .     S
C379  H353   1.10941       .     S
C379  H354   1.10729       .     S
C379  C378   1.53084       .     S
C380  H360   1.10543       .     S
C380  H361   1.11154       .     S
C380  C377   1.53245       .     S
C380  C381   1.54165       .     S
C381  H357   1.10683       .     S
C381  H358   1.10994       .     S
C381  H359   1.10897       .     S
C381  C380   1.54165       .     S
C382  H365   1.11179       .     S
C382  H366   1.10485       .     S
C382  C383   1.52754       .     S
C382  C392   1.52390       .     S
C383  H362   1.10328       .     S
C383  H363   1.10194       .     S
C383  H364   1.11006       .     S
C383  C382   1.52754       .     S
C384  H370   1.10518       .     S
C384  H371   1.11106   1_655     S
C384  C385   1.52555       .     S
C384  C400   1.51947       .     S
C385  H367   1.10813   1_655     S
C385  H368   1.11027       .     S
C385  H369   1.11014   1_655     S
C385  C384   1.52555       .     S
C386  H375   1.10187       .     S
C386  H376   1.07367       .     S
C386  C387   1.52985       .     S
C386  C402   1.50580       .     S
C387  H372   1.10981       .     S
C387  H373   1.11078       .     S
C387  H374   1.11020       .     S
C387  C386   1.52985       .     S
C388  C398   1.45735       .     S
C388  O407   1.27100       .     S
C388  O408   1.31691       .     S
C389  C395   1.47008       .     S
C389  O406   1.29885       .     S
C389  O409   1.28389       .     S
C390  C377   1.40134       .     S
C390  C391   1.39109   1_655     S
C390  I403   2.14335       .     S
C391  C390   1.39109   1_455     S
C391  C392   1.40497       .     S
C391  I404   2.11691       .     S
C392  C382   1.52390       .     S
C392  C391   1.40497       .     S
C392  C393   1.43442   1_455     S
C393  C392   1.43442   1_655     S
C393  C394   1.42014       .     S
C393  C395   1.42686   1_655     S
C394  C377   1.46294       .     S
C394  C393   1.42014       .     S
C394  C398   1.45420       .     S
C395  C389   1.47008       .     S
C395  C393   1.42686   1_455     S
C395  C396   1.41790   1_455     S
C396  C395   1.41790   1_655     S
C396  C397   1.40344       .     S
C396  C399   1.40506       .     S
C397  C396   1.40344       .     S
C397  C398   1.44129       .     S
C397  C402   1.46027       .     S
C398  C388   1.45735       .     S
C398  C394   1.45420       .     S
C398  C397   1.44129       .     S
C399  C396   1.40506       .     S
C399  C400   1.38235   1_545     S
C399  I405   2.09415   1_655     S
C400  C384   1.51947       .     S
C400  C399   1.38235   1_565     S
C400  C401   1.40501       .     S
C401  C378   1.52221       .     S
C401  C400   1.40501       .     S
C401  C402   1.43280   1_565     S
C402  C386   1.50580       .     S
C402  C397   1.46027       .     S
C402  C401   1.43280   1_545     S
I403  C390   2.14335       .     S
I404  C391   2.11691       .     S
I405  C399   2.09415   1_455     S
O406  Zn141  3.43064       .     S
O406  C389   1.29885       .     S
O407  Zn123  2.09937       .     S
O407  C388   1.27100       .     S
O408  Zn122  4.53653       .     S
O408  C388   1.31691       .     S
O409  Zn140  3.15048       .     S
O409  C389   1.28389       .     S
