data_sample_4_relaxed_charged

_audit_creation_method RASPA-1.0
_audit_creation_date 2026-2-5
_audit_author_name ''

_cell_length_a    31.9462
_cell_length_b    31.2833
_cell_length_c    33.6274
_cell_angle_alpha 93.1529
_cell_angle_beta  90.9175
_cell_angle_gamma 90.8731
_cell_volume      33547.1

_symmetry_cell_setting          triclinic
_symmetry_space_group_name_Hall 'P 1'
_symmetry_space_group_name_H-M  'P 1'
_symmetry_Int_Tables_number     1

_symmetry_equiv_pos_as_xyz 'x,y,z'

loop_
_atom_site_label
_atom_site_type_symbol
_atom_site_fract_x
_atom_site_fract_y
_atom_site_fract_z
_atom_site_charge
Zn0      Zn     0.107470006667     0.190888900000     0.412310630000     1.36779    
Zn1      Zn     0.156177293333     0.150762630000     0.346274020000     1.38268    
H2       H      0.312906933333     0.265628200000     0.337640075000     0.009555   
H3       H      0.033331513333     0.042816935000     0.454180630000     0.072608   
H4       H      0.262637900000     0.157548785000     0.275940925000     0.064518   
H5       H      0.278358520000     0.170015665000     0.205896435000     0.033738   
H6       H      0.012209296667     0.204537915000     0.188722520000     0.036614   
H7       H      0.063745616667     0.226839200000     0.242005885000     0.028538   
H8       H      0.048550486667     0.215217320000     0.311882675000     0.052459   
H9       H      0.001042446667     0.185237510000     0.483218450000    -0.151282   
H10      H      0.318706833333     0.172777310000     0.053274870000     0.044585   
H11      H      0.251493566667     0.138331190000     0.070504250000     0.036803   
H12      H      0.199872033333     0.116129800000     0.017271520000     0.04181    
H13      H      0.274732100000     0.296098085000     0.365597935000     0.018468   
H14      H      0.215012666667     0.127750485000     0.447375030000     0.046514   
H15      H      0.012643813333     0.097608945000     0.304780300000     0.065666   
H16      H      0.004134136667     0.029722415000     0.264418485000     0.026729   
H17      H      0.273119466667     0.485263050000     0.269634700000     0.044209   
H18      H      0.217478156667     0.008493015000     0.316189950000     0.036646   
H19      H      0.225592833333     0.075622595000     0.357144950000     0.046951   
H20      H      0.250880033333     0.245257540000     0.454338520000     0.058702   
H21      H      0.259349883333     0.313116850000     0.494746625000     0.032818   
H22      H      0.323726066667     0.357558600000     0.489668050000     0.039691   
H23      H      0.046099743333     0.334345350000     0.443190850000     0.040844   
H24      H      0.230392316667     0.299940550000     0.304784950000     0.08116    
H25      H      0.038025340000     0.267244700000     0.402184130000     0.042627   
H26      H      0.282656066667     0.320316525000     0.296966730000     0.064706   
H27      H      0.267337143333     0.267558750000     0.276711050000     0.079524   
H28      H      0.322083950000     0.046849220000     0.393484350000     0.01951    
H29      H      0.284040533333     0.077285140000     0.421688380000    -0.000814   
H30      H      0.329741700000     0.075013860000     0.482462315000     0.092883   
H31      H      0.314465400000     0.022323310000     0.462042950000     0.059655   
H32      H      0.073895063333     0.362932620000     0.363439470000     0.061836   
H33      H      0.190416416667     0.478282850000     0.393422450000     0.056979   
H34      H      0.069489946667     0.485112900000     0.335234225000     0.053749   
H35      H      0.194828166667     0.356101400000     0.421612830000     0.061267   
H36      H      0.081010993333     0.062296150000     0.330310150000     0.030523   
H37      H      0.183306866667     0.278913200000     0.426537425000     0.040308   
H38      H      0.064182310000     0.285139530000     0.370444900000     0.006421   
H39      H      0.200129390000     0.056080880000     0.386416525000     0.011406   
H40      H      0.090807400000     0.202868520000     0.263078600000     0.051649   
H41      H      0.085389883333     0.203274920000     0.190669450000     0.05224    
H42      H      0.047404343333     0.159781770000     0.074001610000     0.0543     
H43      H      0.204144866667     0.129653950000     0.252712280000     0.066258   
H44      H      0.198651633333     0.130155070000     0.180291950000     0.052007   
H45      H      0.031454656667     0.092128590000     0.013885450000     0.068324   
H46      H      0.297686576667     0.075393720000     0.478340270000     0.028917   
H47      H      0.262835980000     0.130601450000     0.439923465000     0.038915   
H48      H      0.175593466667     0.202916250000     0.004052500000     0.055115   
H49      H      0.295052500000     0.202949250000     0.437333225000     0.095632   
H50      H      0.028866203333     0.220179530000     0.472476185000    -0.023511   
H51      H      0.150805176667     0.261988950000     0.116456200000     0.050359   
H52      H      0.213160400000     0.291660950000     0.153147370000     0.030614   
H53      H      0.283060510000     0.260944000000     0.140398415000     0.037114   
H54      H      0.290577410000     0.200224850000     0.090632120000     0.027015   
H55      H      0.228548000000     0.169735030000     0.053930500000     0.058221   
C56      C      0.285614300000     0.166715965000     0.417333275000    -0.005523   
C57      C      0.290966000000     0.134906350000     0.356739650000    -0.013682   
C58      C      0.305959566667     0.207967490000     0.402467000000    -0.045927   
C59      C      0.278643686667     0.203454630000     0.364282050000     0.124116   
C60      C      0.318281890000     0.139419200000     0.394924650000     0.142161   
C61      C      0.258245846667     0.162497050000     0.379048615000    -0.081106   
C62      C      0.005349240000     0.180379110000     0.380161900000    -0.160121   
C63      C      0.278827786667     0.272003980000     0.340506650000     0.086808   
C64      C      0.263810200000     0.291128200000     0.302321075000    -0.192164   
C65      C      0.318103566667     0.070862540000     0.418671965000     0.109233   
C66      C      0.333245176667     0.051568880000     0.456753900000    -0.18174    
C67      C      0.321732480000     0.183876410000     0.299194800000     0.013201   
C68      C      0.292313953333     0.172235475000     0.268850800000    -0.047282   
C69      C      0.301033633333     0.179377975000     0.229137750000    -0.018279   
C70      C      0.005565126667     0.198792265000     0.219444260000    -0.040809   
C71      C      0.034652946667     0.211263465000     0.249476535000    -0.020984   
C72      C      0.026090940000     0.204059930000     0.289211200000    -0.040308   
C73      C      0.275222320000     0.159004820000     0.460016220000     0.015533   
C74      C      0.304686666667     0.170593990000     0.490336150000     0.113115   
C75      C      0.295996133333     0.163454980000     0.030055525000    -0.076438   
C76      C      0.258111556667     0.144089610000     0.039777515000    -0.049951   
C77      C      0.228977766667     0.131666300000     0.009771285000    -0.024704   
C78      C      0.237507400000     0.138870100000     0.470027985000    -0.070822   
C79      C      0.285451990000     0.093030790000     0.332519600000     0.047174   
C80      C      0.317476790000     0.078796870000     0.307089715000    -0.067688   
C81      C      0.312882383333     0.040225065000     0.284294130000     0.000607   
C82      C      0.276647733333     0.015135970000     0.287252725000    -0.051966   
C83      C      0.245214920000     0.028327320000     0.313378780000    -0.021893   
C84      C      0.249682843333     0.066906750000     0.336183520000    -0.043731   
C85      C      0.311449486667     0.249844685000     0.426697400000     0.029968   
C86      C      0.279389123333     0.264066750000     0.452082650000    -0.063334   
C87      C      0.283964700000     0.302621350000     0.474908000000    -0.011386   
C88      C      0.320216133333     0.327701150000     0.472025720000    -0.045898   
C89      C      0.018351593333     0.314519400000     0.445940750000    -0.021684   
C90      C      0.013899126667     0.275957020000     0.423105985000    -0.046215   
C91      C      0.049698710000     0.183788250000     0.383378050000     0.461933   
C92      C      0.213899216667     0.159082415000     0.375840215000     0.225968   
C93      C      0.311314533333     0.176158000000     0.341873765000     0.034416   
C94      C      0.171811533333     0.040146350000     0.374919750000     0.024508   
C95      C      0.092500290000     0.301068850000     0.381936250000     0.049158   
C96      C      0.166040460000     0.495829880000     0.379057650000    -0.078245   
C97      C      0.098270993333     0.345385580000     0.377804250000    -0.099257   
C98      C      0.128567793333     0.475111500000     0.364837750000     0.090312   
C99      C      0.135746706667     0.366098350000     0.392017275000     0.10792    
C100     C      0.098627706667     0.499744920000     0.346364915000    -0.073917   
C101     C      0.165687480000     0.341469550000     0.410483600000    -0.104733   
C102     C      0.105394433333     0.043648540000     0.343261650000     0.026115   
C103     C      0.158917800000     0.297566200000     0.413588315000     0.063967   
C104     C      0.150198490000     0.163484125000     0.306970715000     0.056109   
C105     C      0.075220846667     0.167526975000     0.016822415000     0.026078   
C106     C      0.111410080000     0.187007280000     0.203826740000    -0.063075   
C107     C      0.113605480000     0.180419860000     0.453223375000     0.042525   
C108     C      0.114589890000     0.187055975000     0.245298650000    -0.023374   
C109     C      0.141622313333     0.165969210000     0.179950030000     0.084675   
C110     C      0.147769780000     0.166133925000     0.263455035000     0.026394   
C111     C      0.178090000000     0.145892575000     0.239540620000    -0.017954   
C112     C      0.174996316667     0.145979375000     0.198238180000    -0.067291   
C113     C      0.035215980000     0.157206820000     0.495365620000    -0.07081    
C114     C      0.016502673333     0.116473630000     0.497183100000    -0.043658   
C115     C      0.311880733333     0.106915705000     0.477087200000    -0.05453    
C116     C      0.292210100000     0.138032110000     0.455438020000     0.003169   
C117     C      0.310397933333     0.178811180000     0.453935000000    -0.164613   
C118     C      0.015100223333     0.188443975000     0.473813200000     0.336924   
C119     C      0.185027976667     0.213429900000     0.082669420000     0.046072   
C120     C      0.181120753333     0.248122350000     0.110699410000    -0.056048   
C121     C      0.216386716667     0.265077400000     0.131479935000    -0.012642   
C122     C      0.255797133333     0.247783125000     0.124278470000    -0.046378   
C123     C      0.260029000000     0.213561200000     0.096208325000    -0.008952   
C124     C      0.224842586667     0.196460440000     0.075388625000    -0.068458   
C125     C      0.112089433333     0.179065250000     0.496891650000     0.013708   
C126     C      0.147737383333     0.192766590000     0.019207880000    -0.016095   
C127     C      0.147617580000     0.195056230000     0.060834335000    -0.036219   
C128     C      0.111245693333     0.181641755000     0.080658525000     0.080886   
C129     C      0.075480710000     0.168628275000     0.058509420000    -0.083569   
N130     N      0.141473690000     0.063273785000     0.357363500000    -0.145224   
N131     N      0.122841090000     0.277941100000     0.399490950000    -0.140071   
N132     N      0.119137883333     0.430502750000     0.368531400000    -0.08897    
N133     N      0.145176640000     0.410707150000     0.388323635000    -0.091414   
N134     N      0.109382360000     0.181650340000     0.122733950000    -0.089056   
N135     N      0.140622626667     0.164899230000     0.137711080000    -0.08551    
O136     O      0.009391783333     0.107603735000     0.411990350000    -0.195599   
O137     O      0.070504783333     0.159265130000     0.362680225000    -0.402901   
O138     O      0.193093066667     0.183605475000     0.396538050000    -0.352201   
O139     O      0.198228566667     0.150235550000     0.343125250000    -0.277616   
O140     O      0.065369286667     0.192635060000     0.416093000000    -0.629772   
O141     O      0.254199286667     0.235272700000     0.347228825000    -0.203076   
O142     O      0.176882446667     0.138990315000     0.321986650000    -0.68596    
O143     O      0.135735166667     0.209390650000     0.438003720000    -0.560745   
O144     O      0.124882656667     0.183808550000     0.329858550000    -0.479854   
O145     O      0.091268550000     0.154733700000     0.430586515000    -0.403907   
Zn0      Zn     0.107470006667     0.190888900000     0.912310630000     1.36779    
Zn1      Zn     0.156177293333     0.150762630000     0.846274020000     1.38268    
H2       H      0.312906933333     0.265628200000     0.837640075000     0.009555   
H3       H      0.033331513333     0.042816935000     0.954180630000     0.072608   
H4       H      0.262637900000     0.157548785000     0.775940925000     0.064518   
H5       H      0.278358520000     0.170015665000     0.705896435000     0.033738   
H6       H      0.012209296667     0.204537915000     0.688722520000     0.036614   
H7       H      0.063745616667     0.226839200000     0.742005885000     0.028538   
H8       H      0.048550486667     0.215217320000     0.811882675000     0.052459   
H9       H      0.001042446667     0.185237510000     0.983218450000    -0.151282   
H10      H      0.318706833333     0.172777310000     0.553274870000     0.044585   
H11      H      0.251493566667     0.138331190000     0.570504250000     0.036803   
H12      H      0.199872033333     0.116129800000     0.517271520000     0.04181    
H13      H      0.274732100000     0.296098085000     0.865597935000     0.018468   
H14      H      0.215012666667     0.127750485000     0.947375030000     0.046514   
H15      H      0.012643813333     0.097608945000     0.804780300000     0.065666   
H16      H      0.004134136667     0.029722415000     0.764418485000     0.026729   
H17      H      0.273119466667     0.485263050000     0.769634700000     0.044209   
H18      H      0.217478156667     0.008493015000     0.816189950000     0.036646   
H19      H      0.225592833333     0.075622595000     0.857144950000     0.046951   
H20      H      0.250880033333     0.245257540000     0.954338520000     0.058702   
H21      H      0.259349883333     0.313116850000     0.994746625000     0.032818   
H22      H      0.323726066667     0.357558600000     0.989668050000     0.039691   
H23      H      0.046099743333     0.334345350000     0.943190850000     0.040844   
H24      H      0.230392316667     0.299940550000     0.804784950000     0.08116    
H25      H      0.038025340000     0.267244700000     0.902184130000     0.042627   
H26      H      0.282656066667     0.320316525000     0.796966730000     0.064706   
H27      H      0.267337143333     0.267558750000     0.776711050000     0.079524   
H28      H      0.322083950000     0.046849220000     0.893484350000     0.01951    
H29      H      0.284040533333     0.077285140000     0.921688380000    -0.000814   
H30      H      0.329741700000     0.075013860000     0.982462315000     0.092883   
H31      H      0.314465400000     0.022323310000     0.962042950000     0.059655   
H32      H      0.073895063333     0.362932620000     0.863439470000     0.061836   
H33      H      0.190416416667     0.478282850000     0.893422450000     0.056979   
H34      H      0.069489946667     0.485112900000     0.835234225000     0.053749   
H35      H      0.194828166667     0.356101400000     0.921612830000     0.061267   
H36      H      0.081010993333     0.062296150000     0.830310150000     0.030523   
H37      H      0.183306866667     0.278913200000     0.926537425000     0.040308   
H38      H      0.064182310000     0.285139530000     0.870444900000     0.006421   
H39      H      0.200129390000     0.056080880000     0.886416525000     0.011406   
H40      H      0.090807400000     0.202868520000     0.763078600000     0.051649   
H41      H      0.085389883333     0.203274920000     0.690669450000     0.05224    
H42      H      0.047404343333     0.159781770000     0.574001610000     0.0543     
H43      H      0.204144866667     0.129653950000     0.752712280000     0.066258   
H44      H      0.198651633333     0.130155070000     0.680291950000     0.052007   
H45      H      0.031454656667     0.092128590000     0.513885450000     0.068324   
H46      H      0.297686576667     0.075393720000     0.978340270000     0.028917   
H47      H      0.262835980000     0.130601450000     0.939923465000     0.038915   
H48      H      0.175593466667     0.202916250000     0.504052500000     0.055115   
H49      H      0.295052500000     0.202949250000     0.937333225000     0.095632   
H50      H      0.028866203333     0.220179530000     0.972476185000    -0.023511   
H51      H      0.150805176667     0.261988950000     0.616456200000     0.050359   
H52      H      0.213160400000     0.291660950000     0.653147370000     0.030614   
H53      H      0.283060510000     0.260944000000     0.640398415000     0.037114   
H54      H      0.290577410000     0.200224850000     0.590632120000     0.027015   
H55      H      0.228548000000     0.169735030000     0.553930500000     0.058221   
C56      C      0.285614300000     0.166715965000     0.917333275000    -0.005523   
C57      C      0.290966000000     0.134906350000     0.856739650000    -0.013682   
C58      C      0.305959566667     0.207967490000     0.902467000000    -0.045927   
C59      C      0.278643686667     0.203454630000     0.864282050000     0.124116   
C60      C      0.318281890000     0.139419200000     0.894924650000     0.142161   
C61      C      0.258245846667     0.162497050000     0.879048615000    -0.081106   
C62      C      0.005349240000     0.180379110000     0.880161900000    -0.160121   
C63      C      0.278827786667     0.272003980000     0.840506650000     0.086808   
C64      C      0.263810200000     0.291128200000     0.802321075000    -0.192164   
C65      C      0.318103566667     0.070862540000     0.918671965000     0.109233   
C66      C      0.333245176667     0.051568880000     0.956753900000    -0.18174    
C67      C      0.321732480000     0.183876410000     0.799194800000     0.013201   
C68      C      0.292313953333     0.172235475000     0.768850800000    -0.047282   
C69      C      0.301033633333     0.179377975000     0.729137750000    -0.018279   
C70      C      0.005565126667     0.198792265000     0.719444260000    -0.040809   
C71      C      0.034652946667     0.211263465000     0.749476535000    -0.020984   
C72      C      0.026090940000     0.204059930000     0.789211200000    -0.040308   
C73      C      0.275222320000     0.159004820000     0.960016220000     0.015533   
C74      C      0.304686666667     0.170593990000     0.990336150000     0.113115   
C75      C      0.295996133333     0.163454980000     0.530055525000    -0.076438   
C76      C      0.258111556667     0.144089610000     0.539777515000    -0.049951   
C77      C      0.228977766667     0.131666300000     0.509771285000    -0.024704   
C78      C      0.237507400000     0.138870100000     0.970027985000    -0.070822   
C79      C      0.285451990000     0.093030790000     0.832519600000     0.047174   
C80      C      0.317476790000     0.078796870000     0.807089715000    -0.067688   
C81      C      0.312882383333     0.040225065000     0.784294130000     0.000607   
C82      C      0.276647733333     0.015135970000     0.787252725000    -0.051966   
C83      C      0.245214920000     0.028327320000     0.813378780000    -0.021893   
C84      C      0.249682843333     0.066906750000     0.836183520000    -0.043731   
C85      C      0.311449486667     0.249844685000     0.926697400000     0.029968   
C86      C      0.279389123333     0.264066750000     0.952082650000    -0.063334   
C87      C      0.283964700000     0.302621350000     0.974908000000    -0.011386   
C88      C      0.320216133333     0.327701150000     0.972025720000    -0.045898   
C89      C      0.018351593333     0.314519400000     0.945940750000    -0.021684   
C90      C      0.013899126667     0.275957020000     0.923105985000    -0.046215   
C91      C      0.049698710000     0.183788250000     0.883378050000     0.461933   
C92      C      0.213899216667     0.159082415000     0.875840215000     0.225968   
C93      C      0.311314533333     0.176158000000     0.841873765000     0.034416   
C94      C      0.171811533333     0.040146350000     0.874919750000     0.024508   
C95      C      0.092500290000     0.301068850000     0.881936250000     0.049158   
C96      C      0.166040460000     0.495829880000     0.879057650000    -0.078245   
C97      C      0.098270993333     0.345385580000     0.877804250000    -0.099257   
C98      C      0.128567793333     0.475111500000     0.864837750000     0.090312   
C99      C      0.135746706667     0.366098350000     0.892017275000     0.10792    
C100     C      0.098627706667     0.499744920000     0.846364915000    -0.073917   
C101     C      0.165687480000     0.341469550000     0.910483600000    -0.104733   
C102     C      0.105394433333     0.043648540000     0.843261650000     0.026115   
C103     C      0.158917800000     0.297566200000     0.913588315000     0.063967   
C104     C      0.150198490000     0.163484125000     0.806970715000     0.056109   
C105     C      0.075220846667     0.167526975000     0.516822415000     0.026078   
C106     C      0.111410080000     0.187007280000     0.703826740000    -0.063075   
C107     C      0.113605480000     0.180419860000     0.953223375000     0.042525   
C108     C      0.114589890000     0.187055975000     0.745298650000    -0.023374   
C109     C      0.141622313333     0.165969210000     0.679950030000     0.084675   
C110     C      0.147769780000     0.166133925000     0.763455035000     0.026394   
C111     C      0.178090000000     0.145892575000     0.739540620000    -0.017954   
C112     C      0.174996316667     0.145979375000     0.698238180000    -0.067291   
C113     C      0.035215980000     0.157206820000     0.995365620000    -0.07081    
C114     C      0.016502673333     0.116473630000     0.997183100000    -0.043658   
C115     C      0.311880733333     0.106915705000     0.977087200000    -0.05453    
C116     C      0.292210100000     0.138032110000     0.955438020000     0.003169   
C117     C      0.310397933333     0.178811180000     0.953935000000    -0.164613   
C118     C      0.015100223333     0.188443975000     0.973813200000     0.336924   
C119     C      0.185027976667     0.213429900000     0.582669420000     0.046072   
C120     C      0.181120753333     0.248122350000     0.610699410000    -0.056048   
C121     C      0.216386716667     0.265077400000     0.631479935000    -0.012642   
C122     C      0.255797133333     0.247783125000     0.624278470000    -0.046378   
C123     C      0.260029000000     0.213561200000     0.596208325000    -0.008952   
C124     C      0.224842586667     0.196460440000     0.575388625000    -0.068458   
C125     C      0.112089433333     0.179065250000     0.996891650000     0.013708   
C126     C      0.147737383333     0.192766590000     0.519207880000    -0.016095   
C127     C      0.147617580000     0.195056230000     0.560834335000    -0.036219   
C128     C      0.111245693333     0.181641755000     0.580658525000     0.080886   
C129     C      0.075480710000     0.168628275000     0.558509420000    -0.083569   
N130     N      0.141473690000     0.063273785000     0.857363500000    -0.145224   
N131     N      0.122841090000     0.277941100000     0.899490950000    -0.140071   
N132     N      0.119137883333     0.430502750000     0.868531400000    -0.08897    
N133     N      0.145176640000     0.410707150000     0.888323635000    -0.091414   
N134     N      0.109382360000     0.181650340000     0.622733950000    -0.089056   
N135     N      0.140622626667     0.164899230000     0.637711080000    -0.08551    
O136     O      0.009391783333     0.107603735000     0.911990350000    -0.195599   
O137     O      0.070504783333     0.159265130000     0.862680225000    -0.402901   
O138     O      0.193093066667     0.183605475000     0.896538050000    -0.352201   
O139     O      0.198228566667     0.150235550000     0.843125250000    -0.277616   
O140     O      0.065369286667     0.192635060000     0.916093000000    -0.629772   
O141     O      0.254199286667     0.235272700000     0.847228825000    -0.203076   
O142     O      0.176882446667     0.138990315000     0.821986650000    -0.68596    
O143     O      0.135735166667     0.209390650000     0.938003720000    -0.560745   
O144     O      0.124882656667     0.183808550000     0.829858550000    -0.479854   
O145     O      0.091268550000     0.154733700000     0.930586515000    -0.403907   
Zn0      Zn     0.107470006667     0.690888900000     0.412310630000     1.36779    
Zn1      Zn     0.156177293333     0.650762630000     0.346274020000     1.38268    
H2       H      0.312906933333     0.765628200000     0.337640075000     0.009555   
H3       H      0.033331513333     0.542816935000     0.454180630000     0.072608   
H4       H      0.262637900000     0.657548785000     0.275940925000     0.064518   
H5       H      0.278358520000     0.670015665000     0.205896435000     0.033738   
H6       H      0.012209296667     0.704537915000     0.188722520000     0.036614   
H7       H      0.063745616667     0.726839200000     0.242005885000     0.028538   
H8       H      0.048550486667     0.715217320000     0.311882675000     0.052459   
H9       H      0.001042446667     0.685237510000     0.483218450000    -0.151282   
H10      H      0.318706833333     0.672777310000     0.053274870000     0.044585   
H11      H      0.251493566667     0.638331190000     0.070504250000     0.036803   
H12      H      0.199872033333     0.616129800000     0.017271520000     0.04181    
H13      H      0.274732100000     0.796098085000     0.365597935000     0.018468   
H14      H      0.215012666667     0.627750485000     0.447375030000     0.046514   
H15      H      0.012643813333     0.597608945000     0.304780300000     0.065666   
H16      H      0.004134136667     0.529722415000     0.264418485000     0.026729   
H17      H      0.273119466667     0.985263050000     0.269634700000     0.044209   
H18      H      0.217478156667     0.508493015000     0.316189950000     0.036646   
H19      H      0.225592833333     0.575622595000     0.357144950000     0.046951   
H20      H      0.250880033333     0.745257540000     0.454338520000     0.058702   
H21      H      0.259349883333     0.813116850000     0.494746625000     0.032818   
H22      H      0.323726066667     0.857558600000     0.489668050000     0.039691   
H23      H      0.046099743333     0.834345350000     0.443190850000     0.040844   
H24      H      0.230392316667     0.799940550000     0.304784950000     0.08116    
H25      H      0.038025340000     0.767244700000     0.402184130000     0.042627   
H26      H      0.282656066667     0.820316525000     0.296966730000     0.064706   
H27      H      0.267337143333     0.767558750000     0.276711050000     0.079524   
H28      H      0.322083950000     0.546849220000     0.393484350000     0.01951    
H29      H      0.284040533333     0.577285140000     0.421688380000    -0.000814   
H30      H      0.329741700000     0.575013860000     0.482462315000     0.092883   
H31      H      0.314465400000     0.522323310000     0.462042950000     0.059655   
H32      H      0.073895063333     0.862932620000     0.363439470000     0.061836   
H33      H      0.190416416667     0.978282850000     0.393422450000     0.056979   
H34      H      0.069489946667     0.985112900000     0.335234225000     0.053749   
H35      H      0.194828166667     0.856101400000     0.421612830000     0.061267   
H36      H      0.081010993333     0.562296150000     0.330310150000     0.030523   
H37      H      0.183306866667     0.778913200000     0.426537425000     0.040308   
H38      H      0.064182310000     0.785139530000     0.370444900000     0.006421   
H39      H      0.200129390000     0.556080880000     0.386416525000     0.011406   
H40      H      0.090807400000     0.702868520000     0.263078600000     0.051649   
H41      H      0.085389883333     0.703274920000     0.190669450000     0.05224    
H42      H      0.047404343333     0.659781770000     0.074001610000     0.0543     
H43      H      0.204144866667     0.629653950000     0.252712280000     0.066258   
H44      H      0.198651633333     0.630155070000     0.180291950000     0.052007   
H45      H      0.031454656667     0.592128590000     0.013885450000     0.068324   
H46      H      0.297686576667     0.575393720000     0.478340270000     0.028917   
H47      H      0.262835980000     0.630601450000     0.439923465000     0.038915   
H48      H      0.175593466667     0.702916250000     0.004052500000     0.055115   
H49      H      0.295052500000     0.702949250000     0.437333225000     0.095632   
H50      H      0.028866203333     0.720179530000     0.472476185000    -0.023511   
H51      H      0.150805176667     0.761988950000     0.116456200000     0.050359   
H52      H      0.213160400000     0.791660950000     0.153147370000     0.030614   
H53      H      0.283060510000     0.760944000000     0.140398415000     0.037114   
H54      H      0.290577410000     0.700224850000     0.090632120000     0.027015   
H55      H      0.228548000000     0.669735030000     0.053930500000     0.058221   
C56      C      0.285614300000     0.666715965000     0.417333275000    -0.005523   
C57      C      0.290966000000     0.634906350000     0.356739650000    -0.013682   
C58      C      0.305959566667     0.707967490000     0.402467000000    -0.045927   
C59      C      0.278643686667     0.703454630000     0.364282050000     0.124116   
C60      C      0.318281890000     0.639419200000     0.394924650000     0.142161   
C61      C      0.258245846667     0.662497050000     0.379048615000    -0.081106   
C62      C      0.005349240000     0.680379110000     0.380161900000    -0.160121   
C63      C      0.278827786667     0.772003980000     0.340506650000     0.086808   
C64      C      0.263810200000     0.791128200000     0.302321075000    -0.192164   
C65      C      0.318103566667     0.570862540000     0.418671965000     0.109233   
C66      C      0.333245176667     0.551568880000     0.456753900000    -0.18174    
C67      C      0.321732480000     0.683876410000     0.299194800000     0.013201   
C68      C      0.292313953333     0.672235475000     0.268850800000    -0.047282   
C69      C      0.301033633333     0.679377975000     0.229137750000    -0.018279   
C70      C      0.005565126667     0.698792265000     0.219444260000    -0.040809   
C71      C      0.034652946667     0.711263465000     0.249476535000    -0.020984   
C72      C      0.026090940000     0.704059930000     0.289211200000    -0.040308   
C73      C      0.275222320000     0.659004820000     0.460016220000     0.015533   
C74      C      0.304686666667     0.670593990000     0.490336150000     0.113115   
C75      C      0.295996133333     0.663454980000     0.030055525000    -0.076438   
C76      C      0.258111556667     0.644089610000     0.039777515000    -0.049951   
C77      C      0.228977766667     0.631666300000     0.009771285000    -0.024704   
C78      C      0.237507400000     0.638870100000     0.470027985000    -0.070822   
C79      C      0.285451990000     0.593030790000     0.332519600000     0.047174   
C80      C      0.317476790000     0.578796870000     0.307089715000    -0.067688   
C81      C      0.312882383333     0.540225065000     0.284294130000     0.000607   
C82      C      0.276647733333     0.515135970000     0.287252725000    -0.051966   
C83      C      0.245214920000     0.528327320000     0.313378780000    -0.021893   
C84      C      0.249682843333     0.566906750000     0.336183520000    -0.043731   
C85      C      0.311449486667     0.749844685000     0.426697400000     0.029968   
C86      C      0.279389123333     0.764066750000     0.452082650000    -0.063334   
C87      C      0.283964700000     0.802621350000     0.474908000000    -0.011386   
C88      C      0.320216133333     0.827701150000     0.472025720000    -0.045898   
C89      C      0.018351593333     0.814519400000     0.445940750000    -0.021684   
C90      C      0.013899126667     0.775957020000     0.423105985000    -0.046215   
C91      C      0.049698710000     0.683788250000     0.383378050000     0.461933   
C92      C      0.213899216667     0.659082415000     0.375840215000     0.225968   
C93      C      0.311314533333     0.676158000000     0.341873765000     0.034416   
C94      C      0.171811533333     0.540146350000     0.374919750000     0.024508   
C95      C      0.092500290000     0.801068850000     0.381936250000     0.049158   
C96      C      0.166040460000     0.995829880000     0.379057650000    -0.078245   
C97      C      0.098270993333     0.845385580000     0.377804250000    -0.099257   
C98      C      0.128567793333     0.975111500000     0.364837750000     0.090312   
C99      C      0.135746706667     0.866098350000     0.392017275000     0.10792    
C100     C      0.098627706667     0.999744920000     0.346364915000    -0.073917   
C101     C      0.165687480000     0.841469550000     0.410483600000    -0.104733   
C102     C      0.105394433333     0.543648540000     0.343261650000     0.026115   
C103     C      0.158917800000     0.797566200000     0.413588315000     0.063967   
C104     C      0.150198490000     0.663484125000     0.306970715000     0.056109   
C105     C      0.075220846667     0.667526975000     0.016822415000     0.026078   
C106     C      0.111410080000     0.687007280000     0.203826740000    -0.063075   
C107     C      0.113605480000     0.680419860000     0.453223375000     0.042525   
C108     C      0.114589890000     0.687055975000     0.245298650000    -0.023374   
C109     C      0.141622313333     0.665969210000     0.179950030000     0.084675   
C110     C      0.147769780000     0.666133925000     0.263455035000     0.026394   
C111     C      0.178090000000     0.645892575000     0.239540620000    -0.017954   
C112     C      0.174996316667     0.645979375000     0.198238180000    -0.067291   
C113     C      0.035215980000     0.657206820000     0.495365620000    -0.07081    
C114     C      0.016502673333     0.616473630000     0.497183100000    -0.043658   
C115     C      0.311880733333     0.606915705000     0.477087200000    -0.05453    
C116     C      0.292210100000     0.638032110000     0.455438020000     0.003169   
C117     C      0.310397933333     0.678811180000     0.453935000000    -0.164613   
C118     C      0.015100223333     0.688443975000     0.473813200000     0.336924   
C119     C      0.185027976667     0.713429900000     0.082669420000     0.046072   
C120     C      0.181120753333     0.748122350000     0.110699410000    -0.056048   
C121     C      0.216386716667     0.765077400000     0.131479935000    -0.012642   
C122     C      0.255797133333     0.747783125000     0.124278470000    -0.046378   
C123     C      0.260029000000     0.713561200000     0.096208325000    -0.008952   
C124     C      0.224842586667     0.696460440000     0.075388625000    -0.068458   
C125     C      0.112089433333     0.679065250000     0.496891650000     0.013708   
C126     C      0.147737383333     0.692766590000     0.019207880000    -0.016095   
C127     C      0.147617580000     0.695056230000     0.060834335000    -0.036219   
C128     C      0.111245693333     0.681641755000     0.080658525000     0.080886   
C129     C      0.075480710000     0.668628275000     0.058509420000    -0.083569   
N130     N      0.141473690000     0.563273785000     0.357363500000    -0.145224   
N131     N      0.122841090000     0.777941100000     0.399490950000    -0.140071   
N132     N      0.119137883333     0.930502750000     0.368531400000    -0.08897    
N133     N      0.145176640000     0.910707150000     0.388323635000    -0.091414   
N134     N      0.109382360000     0.681650340000     0.122733950000    -0.089056   
N135     N      0.140622626667     0.664899230000     0.137711080000    -0.08551    
O136     O      0.009391783333     0.607603735000     0.411990350000    -0.195599   
O137     O      0.070504783333     0.659265130000     0.362680225000    -0.402901   
O138     O      0.193093066667     0.683605475000     0.396538050000    -0.352201   
O139     O      0.198228566667     0.650235550000     0.343125250000    -0.277616   
O140     O      0.065369286667     0.692635060000     0.416093000000    -0.629772   
O141     O      0.254199286667     0.735272700000     0.347228825000    -0.203076   
O142     O      0.176882446667     0.638990315000     0.321986650000    -0.68596    
O143     O      0.135735166667     0.709390650000     0.438003720000    -0.560745   
O144     O      0.124882656667     0.683808550000     0.329858550000    -0.479854   
O145     O      0.091268550000     0.654733700000     0.430586515000    -0.403907   
Zn0      Zn     0.107470006667     0.690888900000     0.912310630000     1.36779    
Zn1      Zn     0.156177293333     0.650762630000     0.846274020000     1.38268    
H2       H      0.312906933333     0.765628200000     0.837640075000     0.009555   
H3       H      0.033331513333     0.542816935000     0.954180630000     0.072608   
H4       H      0.262637900000     0.657548785000     0.775940925000     0.064518   
H5       H      0.278358520000     0.670015665000     0.705896435000     0.033738   
H6       H      0.012209296667     0.704537915000     0.688722520000     0.036614   
H7       H      0.063745616667     0.726839200000     0.742005885000     0.028538   
H8       H      0.048550486667     0.715217320000     0.811882675000     0.052459   
H9       H      0.001042446667     0.685237510000     0.983218450000    -0.151282   
H10      H      0.318706833333     0.672777310000     0.553274870000     0.044585   
H11      H      0.251493566667     0.638331190000     0.570504250000     0.036803   
H12      H      0.199872033333     0.616129800000     0.517271520000     0.04181    
H13      H      0.274732100000     0.796098085000     0.865597935000     0.018468   
H14      H      0.215012666667     0.627750485000     0.947375030000     0.046514   
H15      H      0.012643813333     0.597608945000     0.804780300000     0.065666   
H16      H      0.004134136667     0.529722415000     0.764418485000     0.026729   
H17      H      0.273119466667     0.985263050000     0.769634700000     0.044209   
H18      H      0.217478156667     0.508493015000     0.816189950000     0.036646   
H19      H      0.225592833333     0.575622595000     0.857144950000     0.046951   
H20      H      0.250880033333     0.745257540000     0.954338520000     0.058702   
H21      H      0.259349883333     0.813116850000     0.994746625000     0.032818   
H22      H      0.323726066667     0.857558600000     0.989668050000     0.039691   
H23      H      0.046099743333     0.834345350000     0.943190850000     0.040844   
H24      H      0.230392316667     0.799940550000     0.804784950000     0.08116    
H25      H      0.038025340000     0.767244700000     0.902184130000     0.042627   
H26      H      0.282656066667     0.820316525000     0.796966730000     0.064706   
H27      H      0.267337143333     0.767558750000     0.776711050000     0.079524   
H28      H      0.322083950000     0.546849220000     0.893484350000     0.01951    
H29      H      0.284040533333     0.577285140000     0.921688380000    -0.000814   
H30      H      0.329741700000     0.575013860000     0.982462315000     0.092883   
H31      H      0.314465400000     0.522323310000     0.962042950000     0.059655   
H32      H      0.073895063333     0.862932620000     0.863439470000     0.061836   
H33      H      0.190416416667     0.978282850000     0.893422450000     0.056979   
H34      H      0.069489946667     0.985112900000     0.835234225000     0.053749   
H35      H      0.194828166667     0.856101400000     0.921612830000     0.061267   
H36      H      0.081010993333     0.562296150000     0.830310150000     0.030523   
H37      H      0.183306866667     0.778913200000     0.926537425000     0.040308   
H38      H      0.064182310000     0.785139530000     0.870444900000     0.006421   
H39      H      0.200129390000     0.556080880000     0.886416525000     0.011406   
H40      H      0.090807400000     0.702868520000     0.763078600000     0.051649   
H41      H      0.085389883333     0.703274920000     0.690669450000     0.05224    
H42      H      0.047404343333     0.659781770000     0.574001610000     0.0543     
H43      H      0.204144866667     0.629653950000     0.752712280000     0.066258   
H44      H      0.198651633333     0.630155070000     0.680291950000     0.052007   
H45      H      0.031454656667     0.592128590000     0.513885450000     0.068324   
H46      H      0.297686576667     0.575393720000     0.978340270000     0.028917   
H47      H      0.262835980000     0.630601450000     0.939923465000     0.038915   
H48      H      0.175593466667     0.702916250000     0.504052500000     0.055115   
H49      H      0.295052500000     0.702949250000     0.937333225000     0.095632   
H50      H      0.028866203333     0.720179530000     0.972476185000    -0.023511   
H51      H      0.150805176667     0.761988950000     0.616456200000     0.050359   
H52      H      0.213160400000     0.791660950000     0.653147370000     0.030614   
H53      H      0.283060510000     0.760944000000     0.640398415000     0.037114   
H54      H      0.290577410000     0.700224850000     0.590632120000     0.027015   
H55      H      0.228548000000     0.669735030000     0.553930500000     0.058221   
C56      C      0.285614300000     0.666715965000     0.917333275000    -0.005523   
C57      C      0.290966000000     0.634906350000     0.856739650000    -0.013682   
C58      C      0.305959566667     0.707967490000     0.902467000000    -0.045927   
C59      C      0.278643686667     0.703454630000     0.864282050000     0.124116   
C60      C      0.318281890000     0.639419200000     0.894924650000     0.142161   
C61      C      0.258245846667     0.662497050000     0.879048615000    -0.081106   
C62      C      0.005349240000     0.680379110000     0.880161900000    -0.160121   
C63      C      0.278827786667     0.772003980000     0.840506650000     0.086808   
C64      C      0.263810200000     0.791128200000     0.802321075000    -0.192164   
C65      C      0.318103566667     0.570862540000     0.918671965000     0.109233   
C66      C      0.333245176667     0.551568880000     0.956753900000    -0.18174    
C67      C      0.321732480000     0.683876410000     0.799194800000     0.013201   
C68      C      0.292313953333     0.672235475000     0.768850800000    -0.047282   
C69      C      0.301033633333     0.679377975000     0.729137750000    -0.018279   
C70      C      0.005565126667     0.698792265000     0.719444260000    -0.040809   
C71      C      0.034652946667     0.711263465000     0.749476535000    -0.020984   
C72      C      0.026090940000     0.704059930000     0.789211200000    -0.040308   
C73      C      0.275222320000     0.659004820000     0.960016220000     0.015533   
C74      C      0.304686666667     0.670593990000     0.990336150000     0.113115   
C75      C      0.295996133333     0.663454980000     0.530055525000    -0.076438   
C76      C      0.258111556667     0.644089610000     0.539777515000    -0.049951   
C77      C      0.228977766667     0.631666300000     0.509771285000    -0.024704   
C78      C      0.237507400000     0.638870100000     0.970027985000    -0.070822   
C79      C      0.285451990000     0.593030790000     0.832519600000     0.047174   
C80      C      0.317476790000     0.578796870000     0.807089715000    -0.067688   
C81      C      0.312882383333     0.540225065000     0.784294130000     0.000607   
C82      C      0.276647733333     0.515135970000     0.787252725000    -0.051966   
C83      C      0.245214920000     0.528327320000     0.813378780000    -0.021893   
C84      C      0.249682843333     0.566906750000     0.836183520000    -0.043731   
C85      C      0.311449486667     0.749844685000     0.926697400000     0.029968   
C86      C      0.279389123333     0.764066750000     0.952082650000    -0.063334   
C87      C      0.283964700000     0.802621350000     0.974908000000    -0.011386   
C88      C      0.320216133333     0.827701150000     0.972025720000    -0.045898   
C89      C      0.018351593333     0.814519400000     0.945940750000    -0.021684   
C90      C      0.013899126667     0.775957020000     0.923105985000    -0.046215   
C91      C      0.049698710000     0.683788250000     0.883378050000     0.461933   
C92      C      0.213899216667     0.659082415000     0.875840215000     0.225968   
C93      C      0.311314533333     0.676158000000     0.841873765000     0.034416   
C94      C      0.171811533333     0.540146350000     0.874919750000     0.024508   
C95      C      0.092500290000     0.801068850000     0.881936250000     0.049158   
C96      C      0.166040460000     0.995829880000     0.879057650000    -0.078245   
C97      C      0.098270993333     0.845385580000     0.877804250000    -0.099257   
C98      C      0.128567793333     0.975111500000     0.864837750000     0.090312   
C99      C      0.135746706667     0.866098350000     0.892017275000     0.10792    
C100     C      0.098627706667     0.999744920000     0.846364915000    -0.073917   
C101     C      0.165687480000     0.841469550000     0.910483600000    -0.104733   
C102     C      0.105394433333     0.543648540000     0.843261650000     0.026115   
C103     C      0.158917800000     0.797566200000     0.913588315000     0.063967   
C104     C      0.150198490000     0.663484125000     0.806970715000     0.056109   
C105     C      0.075220846667     0.667526975000     0.516822415000     0.026078   
C106     C      0.111410080000     0.687007280000     0.703826740000    -0.063075   
C107     C      0.113605480000     0.680419860000     0.953223375000     0.042525   
C108     C      0.114589890000     0.687055975000     0.745298650000    -0.023374   
C109     C      0.141622313333     0.665969210000     0.679950030000     0.084675   
C110     C      0.147769780000     0.666133925000     0.763455035000     0.026394   
C111     C      0.178090000000     0.645892575000     0.739540620000    -0.017954   
C112     C      0.174996316667     0.645979375000     0.698238180000    -0.067291   
C113     C      0.035215980000     0.657206820000     0.995365620000    -0.07081    
C114     C      0.016502673333     0.616473630000     0.997183100000    -0.043658   
C115     C      0.311880733333     0.606915705000     0.977087200000    -0.05453    
C116     C      0.292210100000     0.638032110000     0.955438020000     0.003169   
C117     C      0.310397933333     0.678811180000     0.953935000000    -0.164613   
C118     C      0.015100223333     0.688443975000     0.973813200000     0.336924   
C119     C      0.185027976667     0.713429900000     0.582669420000     0.046072   
C120     C      0.181120753333     0.748122350000     0.610699410000    -0.056048   
C121     C      0.216386716667     0.765077400000     0.631479935000    -0.012642   
C122     C      0.255797133333     0.747783125000     0.624278470000    -0.046378   
C123     C      0.260029000000     0.713561200000     0.596208325000    -0.008952   
C124     C      0.224842586667     0.696460440000     0.575388625000    -0.068458   
C125     C      0.112089433333     0.679065250000     0.996891650000     0.013708   
C126     C      0.147737383333     0.692766590000     0.519207880000    -0.016095   
C127     C      0.147617580000     0.695056230000     0.560834335000    -0.036219   
C128     C      0.111245693333     0.681641755000     0.580658525000     0.080886   
C129     C      0.075480710000     0.668628275000     0.558509420000    -0.083569   
N130     N      0.141473690000     0.563273785000     0.857363500000    -0.145224   
N131     N      0.122841090000     0.777941100000     0.899490950000    -0.140071   
N132     N      0.119137883333     0.930502750000     0.868531400000    -0.08897    
N133     N      0.145176640000     0.910707150000     0.888323635000    -0.091414   
N134     N      0.109382360000     0.681650340000     0.622733950000    -0.089056   
N135     N      0.140622626667     0.664899230000     0.637711080000    -0.08551    
O136     O      0.009391783333     0.607603735000     0.911990350000    -0.195599   
O137     O      0.070504783333     0.659265130000     0.862680225000    -0.402901   
O138     O      0.193093066667     0.683605475000     0.896538050000    -0.352201   
O139     O      0.198228566667     0.650235550000     0.843125250000    -0.277616   
O140     O      0.065369286667     0.692635060000     0.916093000000    -0.629772   
O141     O      0.254199286667     0.735272700000     0.847228825000    -0.203076   
O142     O      0.176882446667     0.638990315000     0.821986650000    -0.68596    
O143     O      0.135735166667     0.709390650000     0.938003720000    -0.560745   
O144     O      0.124882656667     0.683808550000     0.829858550000    -0.479854   
O145     O      0.091268550000     0.654733700000     0.930586515000    -0.403907   
Zn0      Zn     0.440803340000     0.190888900000     0.412310630000     1.36779    
Zn1      Zn     0.489510626667     0.150762630000     0.346274020000     1.38268    
H2       H      0.646240266667     0.265628200000     0.337640075000     0.009555   
H3       H      0.366664846667     0.042816935000     0.454180630000     0.072608   
H4       H      0.595971233333     0.157548785000     0.275940925000     0.064518   
H5       H      0.611691853333     0.170015665000     0.205896435000     0.033738   
H6       H      0.345542630000     0.204537915000     0.188722520000     0.036614   
H7       H      0.397078950000     0.226839200000     0.242005885000     0.028538   
H8       H      0.381883820000     0.215217320000     0.311882675000     0.052459   
H9       H      0.334375780000     0.185237510000     0.483218450000    -0.151282   
H10      H      0.652040166667     0.172777310000     0.053274870000     0.044585   
H11      H      0.584826900000     0.138331190000     0.070504250000     0.036803   
H12      H      0.533205366667     0.116129800000     0.017271520000     0.04181    
H13      H      0.608065433333     0.296098085000     0.365597935000     0.018468   
H14      H      0.548346000000     0.127750485000     0.447375030000     0.046514   
H15      H      0.345977146667     0.097608945000     0.304780300000     0.065666   
H16      H      0.337467470000     0.029722415000     0.264418485000     0.026729   
H17      H      0.606452800000     0.485263050000     0.269634700000     0.044209   
H18      H      0.550811490000     0.008493015000     0.316189950000     0.036646   
H19      H      0.558926166667     0.075622595000     0.357144950000     0.046951   
H20      H      0.584213366667     0.245257540000     0.454338520000     0.058702   
H21      H      0.592683216667     0.313116850000     0.494746625000     0.032818   
H22      H      0.657059400000     0.357558600000     0.489668050000     0.039691   
H23      H      0.379433076667     0.334345350000     0.443190850000     0.040844   
H24      H      0.563725650000     0.299940550000     0.304784950000     0.08116    
H25      H      0.371358673333     0.267244700000     0.402184130000     0.042627   
H26      H      0.615989400000     0.320316525000     0.296966730000     0.064706   
H27      H      0.600670476667     0.267558750000     0.276711050000     0.079524   
H28      H      0.655417283333     0.046849220000     0.393484350000     0.01951    
H29      H      0.617373866667     0.077285140000     0.421688380000    -0.000814   
H30      H      0.663075033333     0.075013860000     0.482462315000     0.092883   
H31      H      0.647798733333     0.022323310000     0.462042950000     0.059655   
H32      H      0.407228396667     0.362932620000     0.363439470000     0.061836   
H33      H      0.523749750000     0.478282850000     0.393422450000     0.056979   
H34      H      0.402823280000     0.485112900000     0.335234225000     0.053749   
H35      H      0.528161500000     0.356101400000     0.421612830000     0.061267   
H36      H      0.414344326667     0.062296150000     0.330310150000     0.030523   
H37      H      0.516640200000     0.278913200000     0.426537425000     0.040308   
H38      H      0.397515643333     0.285139530000     0.370444900000     0.006421   
H39      H      0.533462723333     0.056080880000     0.386416525000     0.011406   
H40      H      0.424140733333     0.202868520000     0.263078600000     0.051649   
H41      H      0.418723216667     0.203274920000     0.190669450000     0.05224    
H42      H      0.380737676667     0.159781770000     0.074001610000     0.0543     
H43      H      0.537478200000     0.129653950000     0.252712280000     0.066258   
H44      H      0.531984966667     0.130155070000     0.180291950000     0.052007   
H45      H      0.364787990000     0.092128590000     0.013885450000     0.068324   
H46      H      0.631019910000     0.075393720000     0.478340270000     0.028917   
H47      H      0.596169313333     0.130601450000     0.439923465000     0.038915   
H48      H      0.508926800000     0.202916250000     0.004052500000     0.055115   
H49      H      0.628385833333     0.202949250000     0.437333225000     0.095632   
H50      H      0.362199536667     0.220179530000     0.472476185000    -0.023511   
H51      H      0.484138510000     0.261988950000     0.116456200000     0.050359   
H52      H      0.546493733333     0.291660950000     0.153147370000     0.030614   
H53      H      0.616393843333     0.260944000000     0.140398415000     0.037114   
H54      H      0.623910743333     0.200224850000     0.090632120000     0.027015   
H55      H      0.561881333333     0.169735030000     0.053930500000     0.058221   
C56      C      0.618947633333     0.166715965000     0.417333275000    -0.005523   
C57      C      0.624299333333     0.134906350000     0.356739650000    -0.013682   
C58      C      0.639292900000     0.207967490000     0.402467000000    -0.045927   
C59      C      0.611977020000     0.203454630000     0.364282050000     0.124116   
C60      C      0.651615223333     0.139419200000     0.394924650000     0.142161   
C61      C      0.591579180000     0.162497050000     0.379048615000    -0.081106   
C62      C      0.338682573333     0.180379110000     0.380161900000    -0.160121   
C63      C      0.612161120000     0.272003980000     0.340506650000     0.086808   
C64      C      0.597143533333     0.291128200000     0.302321075000    -0.192164   
C65      C      0.651436900000     0.070862540000     0.418671965000     0.109233   
C66      C      0.666578510000     0.051568880000     0.456753900000    -0.18174    
C67      C      0.655065813333     0.183876410000     0.299194800000     0.013201   
C68      C      0.625647286667     0.172235475000     0.268850800000    -0.047282   
C69      C      0.634366966667     0.179377975000     0.229137750000    -0.018279   
C70      C      0.338898460000     0.198792265000     0.219444260000    -0.040809   
C71      C      0.367986280000     0.211263465000     0.249476535000    -0.020984   
C72      C      0.359424273333     0.204059930000     0.289211200000    -0.040308   
C73      C      0.608555653333     0.159004820000     0.460016220000     0.015533   
C74      C      0.638020000000     0.170593990000     0.490336150000     0.113115   
C75      C      0.629329466667     0.163454980000     0.030055525000    -0.076438   
C76      C      0.591444890000     0.144089610000     0.039777515000    -0.049951   
C77      C      0.562311100000     0.131666300000     0.009771285000    -0.024704   
C78      C      0.570840733333     0.138870100000     0.470027985000    -0.070822   
C79      C      0.618785323333     0.093030790000     0.332519600000     0.047174   
C80      C      0.650810123333     0.078796870000     0.307089715000    -0.067688   
C81      C      0.646215716667     0.040225065000     0.284294130000     0.000607   
C82      C      0.609981066667     0.015135970000     0.287252725000    -0.051966   
C83      C      0.578548253333     0.028327320000     0.313378780000    -0.021893   
C84      C      0.583016176667     0.066906750000     0.336183520000    -0.043731   
C85      C      0.644782820000     0.249844685000     0.426697400000     0.029968   
C86      C      0.612722456667     0.264066750000     0.452082650000    -0.063334   
C87      C      0.617298033333     0.302621350000     0.474908000000    -0.011386   
C88      C      0.653549466667     0.327701150000     0.472025720000    -0.045898   
C89      C      0.351684926667     0.314519400000     0.445940750000    -0.021684   
C90      C      0.347232460000     0.275957020000     0.423105985000    -0.046215   
C91      C      0.383032043333     0.183788250000     0.383378050000     0.461933   
C92      C      0.547232550000     0.159082415000     0.375840215000     0.225968   
C93      C      0.644647866667     0.176158000000     0.341873765000     0.034416   
C94      C      0.505144866667     0.040146350000     0.374919750000     0.024508   
C95      C      0.425833623333     0.301068850000     0.381936250000     0.049158   
C96      C      0.499373793333     0.495829880000     0.379057650000    -0.078245   
C97      C      0.431604326667     0.345385580000     0.377804250000    -0.099257   
C98      C      0.461901126667     0.475111500000     0.364837750000     0.090312   
C99      C      0.469080040000     0.366098350000     0.392017275000     0.10792    
C100     C      0.431961040000     0.499744920000     0.346364915000    -0.073917   
C101     C      0.499020813333     0.341469550000     0.410483600000    -0.104733   
C102     C      0.438727766667     0.043648540000     0.343261650000     0.026115   
C103     C      0.492251133333     0.297566200000     0.413588315000     0.063967   
C104     C      0.483531823333     0.163484125000     0.306970715000     0.056109   
C105     C      0.408554180000     0.167526975000     0.016822415000     0.026078   
C106     C      0.444743413333     0.187007280000     0.203826740000    -0.063075   
C107     C      0.446938813333     0.180419860000     0.453223375000     0.042525   
C108     C      0.447923223333     0.187055975000     0.245298650000    -0.023374   
C109     C      0.474955646667     0.165969210000     0.179950030000     0.084675   
C110     C      0.481103113333     0.166133925000     0.263455035000     0.026394   
C111     C      0.511423333333     0.145892575000     0.239540620000    -0.017954   
C112     C      0.508329650000     0.145979375000     0.198238180000    -0.067291   
C113     C      0.368549313333     0.157206820000     0.495365620000    -0.07081    
C114     C      0.349836006667     0.116473630000     0.497183100000    -0.043658   
C115     C      0.645214066667     0.106915705000     0.477087200000    -0.05453    
C116     C      0.625543433333     0.138032110000     0.455438020000     0.003169   
C117     C      0.643731266667     0.178811180000     0.453935000000    -0.164613   
C118     C      0.348433556667     0.188443975000     0.473813200000     0.336924   
C119     C      0.518361310000     0.213429900000     0.082669420000     0.046072   
C120     C      0.514454086667     0.248122350000     0.110699410000    -0.056048   
C121     C      0.549720050000     0.265077400000     0.131479935000    -0.012642   
C122     C      0.589130466667     0.247783125000     0.124278470000    -0.046378   
C123     C      0.593362333333     0.213561200000     0.096208325000    -0.008952   
C124     C      0.558175920000     0.196460440000     0.075388625000    -0.068458   
C125     C      0.445422766667     0.179065250000     0.496891650000     0.013708   
C126     C      0.481070716667     0.192766590000     0.019207880000    -0.016095   
C127     C      0.480950913333     0.195056230000     0.060834335000    -0.036219   
C128     C      0.444579026667     0.181641755000     0.080658525000     0.080886   
C129     C      0.408814043333     0.168628275000     0.058509420000    -0.083569   
N130     N      0.474807023333     0.063273785000     0.357363500000    -0.145224   
N131     N      0.456174423333     0.277941100000     0.399490950000    -0.140071   
N132     N      0.452471216667     0.430502750000     0.368531400000    -0.08897    
N133     N      0.478509973333     0.410707150000     0.388323635000    -0.091414   
N134     N      0.442715693333     0.181650340000     0.122733950000    -0.089056   
N135     N      0.473955960000     0.164899230000     0.137711080000    -0.08551    
O136     O      0.342725116667     0.107603735000     0.411990350000    -0.195599   
O137     O      0.403838116667     0.159265130000     0.362680225000    -0.402901   
O138     O      0.526426400000     0.183605475000     0.396538050000    -0.352201   
O139     O      0.531561900000     0.150235550000     0.343125250000    -0.277616   
O140     O      0.398702620000     0.192635060000     0.416093000000    -0.629772   
O141     O      0.587532620000     0.235272700000     0.347228825000    -0.203076   
O142     O      0.510215780000     0.138990315000     0.321986650000    -0.68596    
O143     O      0.469068500000     0.209390650000     0.438003720000    -0.560745   
O144     O      0.458215990000     0.183808550000     0.329858550000    -0.479854   
O145     O      0.424601883333     0.154733700000     0.430586515000    -0.403907   
Zn0      Zn     0.440803340000     0.190888900000     0.912310630000     1.36779    
Zn1      Zn     0.489510626667     0.150762630000     0.846274020000     1.38268    
H2       H      0.646240266667     0.265628200000     0.837640075000     0.009555   
H3       H      0.366664846667     0.042816935000     0.954180630000     0.072608   
H4       H      0.595971233333     0.157548785000     0.775940925000     0.064518   
H5       H      0.611691853333     0.170015665000     0.705896435000     0.033738   
H6       H      0.345542630000     0.204537915000     0.688722520000     0.036614   
H7       H      0.397078950000     0.226839200000     0.742005885000     0.028538   
H8       H      0.381883820000     0.215217320000     0.811882675000     0.052459   
H9       H      0.334375780000     0.185237510000     0.983218450000    -0.151282   
H10      H      0.652040166667     0.172777310000     0.553274870000     0.044585   
H11      H      0.584826900000     0.138331190000     0.570504250000     0.036803   
H12      H      0.533205366667     0.116129800000     0.517271520000     0.04181    
H13      H      0.608065433333     0.296098085000     0.865597935000     0.018468   
H14      H      0.548346000000     0.127750485000     0.947375030000     0.046514   
H15      H      0.345977146667     0.097608945000     0.804780300000     0.065666   
H16      H      0.337467470000     0.029722415000     0.764418485000     0.026729   
H17      H      0.606452800000     0.485263050000     0.769634700000     0.044209   
H18      H      0.550811490000     0.008493015000     0.816189950000     0.036646   
H19      H      0.558926166667     0.075622595000     0.857144950000     0.046951   
H20      H      0.584213366667     0.245257540000     0.954338520000     0.058702   
H21      H      0.592683216667     0.313116850000     0.994746625000     0.032818   
H22      H      0.657059400000     0.357558600000     0.989668050000     0.039691   
H23      H      0.379433076667     0.334345350000     0.943190850000     0.040844   
H24      H      0.563725650000     0.299940550000     0.804784950000     0.08116    
H25      H      0.371358673333     0.267244700000     0.902184130000     0.042627   
H26      H      0.615989400000     0.320316525000     0.796966730000     0.064706   
H27      H      0.600670476667     0.267558750000     0.776711050000     0.079524   
H28      H      0.655417283333     0.046849220000     0.893484350000     0.01951    
H29      H      0.617373866667     0.077285140000     0.921688380000    -0.000814   
H30      H      0.663075033333     0.075013860000     0.982462315000     0.092883   
H31      H      0.647798733333     0.022323310000     0.962042950000     0.059655   
H32      H      0.407228396667     0.362932620000     0.863439470000     0.061836   
H33      H      0.523749750000     0.478282850000     0.893422450000     0.056979   
H34      H      0.402823280000     0.485112900000     0.835234225000     0.053749   
H35      H      0.528161500000     0.356101400000     0.921612830000     0.061267   
H36      H      0.414344326667     0.062296150000     0.830310150000     0.030523   
H37      H      0.516640200000     0.278913200000     0.926537425000     0.040308   
H38      H      0.397515643333     0.285139530000     0.870444900000     0.006421   
H39      H      0.533462723333     0.056080880000     0.886416525000     0.011406   
H40      H      0.424140733333     0.202868520000     0.763078600000     0.051649   
H41      H      0.418723216667     0.203274920000     0.690669450000     0.05224    
H42      H      0.380737676667     0.159781770000     0.574001610000     0.0543     
H43      H      0.537478200000     0.129653950000     0.752712280000     0.066258   
H44      H      0.531984966667     0.130155070000     0.680291950000     0.052007   
H45      H      0.364787990000     0.092128590000     0.513885450000     0.068324   
H46      H      0.631019910000     0.075393720000     0.978340270000     0.028917   
H47      H      0.596169313333     0.130601450000     0.939923465000     0.038915   
H48      H      0.508926800000     0.202916250000     0.504052500000     0.055115   
H49      H      0.628385833333     0.202949250000     0.937333225000     0.095632   
H50      H      0.362199536667     0.220179530000     0.972476185000    -0.023511   
H51      H      0.484138510000     0.261988950000     0.616456200000     0.050359   
H52      H      0.546493733333     0.291660950000     0.653147370000     0.030614   
H53      H      0.616393843333     0.260944000000     0.640398415000     0.037114   
H54      H      0.623910743333     0.200224850000     0.590632120000     0.027015   
H55      H      0.561881333333     0.169735030000     0.553930500000     0.058221   
C56      C      0.618947633333     0.166715965000     0.917333275000    -0.005523   
C57      C      0.624299333333     0.134906350000     0.856739650000    -0.013682   
C58      C      0.639292900000     0.207967490000     0.902467000000    -0.045927   
C59      C      0.611977020000     0.203454630000     0.864282050000     0.124116   
C60      C      0.651615223333     0.139419200000     0.894924650000     0.142161   
C61      C      0.591579180000     0.162497050000     0.879048615000    -0.081106   
C62      C      0.338682573333     0.180379110000     0.880161900000    -0.160121   
C63      C      0.612161120000     0.272003980000     0.840506650000     0.086808   
C64      C      0.597143533333     0.291128200000     0.802321075000    -0.192164   
C65      C      0.651436900000     0.070862540000     0.918671965000     0.109233   
C66      C      0.666578510000     0.051568880000     0.956753900000    -0.18174    
C67      C      0.655065813333     0.183876410000     0.799194800000     0.013201   
C68      C      0.625647286667     0.172235475000     0.768850800000    -0.047282   
C69      C      0.634366966667     0.179377975000     0.729137750000    -0.018279   
C70      C      0.338898460000     0.198792265000     0.719444260000    -0.040809   
C71      C      0.367986280000     0.211263465000     0.749476535000    -0.020984   
C72      C      0.359424273333     0.204059930000     0.789211200000    -0.040308   
C73      C      0.608555653333     0.159004820000     0.960016220000     0.015533   
C74      C      0.638020000000     0.170593990000     0.990336150000     0.113115   
C75      C      0.629329466667     0.163454980000     0.530055525000    -0.076438   
C76      C      0.591444890000     0.144089610000     0.539777515000    -0.049951   
C77      C      0.562311100000     0.131666300000     0.509771285000    -0.024704   
C78      C      0.570840733333     0.138870100000     0.970027985000    -0.070822   
C79      C      0.618785323333     0.093030790000     0.832519600000     0.047174   
C80      C      0.650810123333     0.078796870000     0.807089715000    -0.067688   
C81      C      0.646215716667     0.040225065000     0.784294130000     0.000607   
C82      C      0.609981066667     0.015135970000     0.787252725000    -0.051966   
C83      C      0.578548253333     0.028327320000     0.813378780000    -0.021893   
C84      C      0.583016176667     0.066906750000     0.836183520000    -0.043731   
C85      C      0.644782820000     0.249844685000     0.926697400000     0.029968   
C86      C      0.612722456667     0.264066750000     0.952082650000    -0.063334   
C87      C      0.617298033333     0.302621350000     0.974908000000    -0.011386   
C88      C      0.653549466667     0.327701150000     0.972025720000    -0.045898   
C89      C      0.351684926667     0.314519400000     0.945940750000    -0.021684   
C90      C      0.347232460000     0.275957020000     0.923105985000    -0.046215   
C91      C      0.383032043333     0.183788250000     0.883378050000     0.461933   
C92      C      0.547232550000     0.159082415000     0.875840215000     0.225968   
C93      C      0.644647866667     0.176158000000     0.841873765000     0.034416   
C94      C      0.505144866667     0.040146350000     0.874919750000     0.024508   
C95      C      0.425833623333     0.301068850000     0.881936250000     0.049158   
C96      C      0.499373793333     0.495829880000     0.879057650000    -0.078245   
C97      C      0.431604326667     0.345385580000     0.877804250000    -0.099257   
C98      C      0.461901126667     0.475111500000     0.864837750000     0.090312   
C99      C      0.469080040000     0.366098350000     0.892017275000     0.10792    
C100     C      0.431961040000     0.499744920000     0.846364915000    -0.073917   
C101     C      0.499020813333     0.341469550000     0.910483600000    -0.104733   
C102     C      0.438727766667     0.043648540000     0.843261650000     0.026115   
C103     C      0.492251133333     0.297566200000     0.913588315000     0.063967   
C104     C      0.483531823333     0.163484125000     0.806970715000     0.056109   
C105     C      0.408554180000     0.167526975000     0.516822415000     0.026078   
C106     C      0.444743413333     0.187007280000     0.703826740000    -0.063075   
C107     C      0.446938813333     0.180419860000     0.953223375000     0.042525   
C108     C      0.447923223333     0.187055975000     0.745298650000    -0.023374   
C109     C      0.474955646667     0.165969210000     0.679950030000     0.084675   
C110     C      0.481103113333     0.166133925000     0.763455035000     0.026394   
C111     C      0.511423333333     0.145892575000     0.739540620000    -0.017954   
C112     C      0.508329650000     0.145979375000     0.698238180000    -0.067291   
C113     C      0.368549313333     0.157206820000     0.995365620000    -0.07081    
C114     C      0.349836006667     0.116473630000     0.997183100000    -0.043658   
C115     C      0.645214066667     0.106915705000     0.977087200000    -0.05453    
C116     C      0.625543433333     0.138032110000     0.955438020000     0.003169   
C117     C      0.643731266667     0.178811180000     0.953935000000    -0.164613   
C118     C      0.348433556667     0.188443975000     0.973813200000     0.336924   
C119     C      0.518361310000     0.213429900000     0.582669420000     0.046072   
C120     C      0.514454086667     0.248122350000     0.610699410000    -0.056048   
C121     C      0.549720050000     0.265077400000     0.631479935000    -0.012642   
C122     C      0.589130466667     0.247783125000     0.624278470000    -0.046378   
C123     C      0.593362333333     0.213561200000     0.596208325000    -0.008952   
C124     C      0.558175920000     0.196460440000     0.575388625000    -0.068458   
C125     C      0.445422766667     0.179065250000     0.996891650000     0.013708   
C126     C      0.481070716667     0.192766590000     0.519207880000    -0.016095   
C127     C      0.480950913333     0.195056230000     0.560834335000    -0.036219   
C128     C      0.444579026667     0.181641755000     0.580658525000     0.080886   
C129     C      0.408814043333     0.168628275000     0.558509420000    -0.083569   
N130     N      0.474807023333     0.063273785000     0.857363500000    -0.145224   
N131     N      0.456174423333     0.277941100000     0.899490950000    -0.140071   
N132     N      0.452471216667     0.430502750000     0.868531400000    -0.08897    
N133     N      0.478509973333     0.410707150000     0.888323635000    -0.091414   
N134     N      0.442715693333     0.181650340000     0.622733950000    -0.089056   
N135     N      0.473955960000     0.164899230000     0.637711080000    -0.08551    
O136     O      0.342725116667     0.107603735000     0.911990350000    -0.195599   
O137     O      0.403838116667     0.159265130000     0.862680225000    -0.402901   
O138     O      0.526426400000     0.183605475000     0.896538050000    -0.352201   
O139     O      0.531561900000     0.150235550000     0.843125250000    -0.277616   
O140     O      0.398702620000     0.192635060000     0.916093000000    -0.629772   
O141     O      0.587532620000     0.235272700000     0.847228825000    -0.203076   
O142     O      0.510215780000     0.138990315000     0.821986650000    -0.68596    
O143     O      0.469068500000     0.209390650000     0.938003720000    -0.560745   
O144     O      0.458215990000     0.183808550000     0.829858550000    -0.479854   
O145     O      0.424601883333     0.154733700000     0.930586515000    -0.403907   
Zn0      Zn     0.440803340000     0.690888900000     0.412310630000     1.36779    
Zn1      Zn     0.489510626667     0.650762630000     0.346274020000     1.38268    
H2       H      0.646240266667     0.765628200000     0.337640075000     0.009555   
H3       H      0.366664846667     0.542816935000     0.454180630000     0.072608   
H4       H      0.595971233333     0.657548785000     0.275940925000     0.064518   
H5       H      0.611691853333     0.670015665000     0.205896435000     0.033738   
H6       H      0.345542630000     0.704537915000     0.188722520000     0.036614   
H7       H      0.397078950000     0.726839200000     0.242005885000     0.028538   
H8       H      0.381883820000     0.715217320000     0.311882675000     0.052459   
H9       H      0.334375780000     0.685237510000     0.483218450000    -0.151282   
H10      H      0.652040166667     0.672777310000     0.053274870000     0.044585   
H11      H      0.584826900000     0.638331190000     0.070504250000     0.036803   
H12      H      0.533205366667     0.616129800000     0.017271520000     0.04181    
H13      H      0.608065433333     0.796098085000     0.365597935000     0.018468   
H14      H      0.548346000000     0.627750485000     0.447375030000     0.046514   
H15      H      0.345977146667     0.597608945000     0.304780300000     0.065666   
H16      H      0.337467470000     0.529722415000     0.264418485000     0.026729   
H17      H      0.606452800000     0.985263050000     0.269634700000     0.044209   
H18      H      0.550811490000     0.508493015000     0.316189950000     0.036646   
H19      H      0.558926166667     0.575622595000     0.357144950000     0.046951   
H20      H      0.584213366667     0.745257540000     0.454338520000     0.058702   
H21      H      0.592683216667     0.813116850000     0.494746625000     0.032818   
H22      H      0.657059400000     0.857558600000     0.489668050000     0.039691   
H23      H      0.379433076667     0.834345350000     0.443190850000     0.040844   
H24      H      0.563725650000     0.799940550000     0.304784950000     0.08116    
H25      H      0.371358673333     0.767244700000     0.402184130000     0.042627   
H26      H      0.615989400000     0.820316525000     0.296966730000     0.064706   
H27      H      0.600670476667     0.767558750000     0.276711050000     0.079524   
H28      H      0.655417283333     0.546849220000     0.393484350000     0.01951    
H29      H      0.617373866667     0.577285140000     0.421688380000    -0.000814   
H30      H      0.663075033333     0.575013860000     0.482462315000     0.092883   
H31      H      0.647798733333     0.522323310000     0.462042950000     0.059655   
H32      H      0.407228396667     0.862932620000     0.363439470000     0.061836   
H33      H      0.523749750000     0.978282850000     0.393422450000     0.056979   
H34      H      0.402823280000     0.985112900000     0.335234225000     0.053749   
H35      H      0.528161500000     0.856101400000     0.421612830000     0.061267   
H36      H      0.414344326667     0.562296150000     0.330310150000     0.030523   
H37      H      0.516640200000     0.778913200000     0.426537425000     0.040308   
H38      H      0.397515643333     0.785139530000     0.370444900000     0.006421   
H39      H      0.533462723333     0.556080880000     0.386416525000     0.011406   
H40      H      0.424140733333     0.702868520000     0.263078600000     0.051649   
H41      H      0.418723216667     0.703274920000     0.190669450000     0.05224    
H42      H      0.380737676667     0.659781770000     0.074001610000     0.0543     
H43      H      0.537478200000     0.629653950000     0.252712280000     0.066258   
H44      H      0.531984966667     0.630155070000     0.180291950000     0.052007   
H45      H      0.364787990000     0.592128590000     0.013885450000     0.068324   
H46      H      0.631019910000     0.575393720000     0.478340270000     0.028917   
H47      H      0.596169313333     0.630601450000     0.439923465000     0.038915   
H48      H      0.508926800000     0.702916250000     0.004052500000     0.055115   
H49      H      0.628385833333     0.702949250000     0.437333225000     0.095632   
H50      H      0.362199536667     0.720179530000     0.472476185000    -0.023511   
H51      H      0.484138510000     0.761988950000     0.116456200000     0.050359   
H52      H      0.546493733333     0.791660950000     0.153147370000     0.030614   
H53      H      0.616393843333     0.760944000000     0.140398415000     0.037114   
H54      H      0.623910743333     0.700224850000     0.090632120000     0.027015   
H55      H      0.561881333333     0.669735030000     0.053930500000     0.058221   
C56      C      0.618947633333     0.666715965000     0.417333275000    -0.005523   
C57      C      0.624299333333     0.634906350000     0.356739650000    -0.013682   
C58      C      0.639292900000     0.707967490000     0.402467000000    -0.045927   
C59      C      0.611977020000     0.703454630000     0.364282050000     0.124116   
C60      C      0.651615223333     0.639419200000     0.394924650000     0.142161   
C61      C      0.591579180000     0.662497050000     0.379048615000    -0.081106   
C62      C      0.338682573333     0.680379110000     0.380161900000    -0.160121   
C63      C      0.612161120000     0.772003980000     0.340506650000     0.086808   
C64      C      0.597143533333     0.791128200000     0.302321075000    -0.192164   
C65      C      0.651436900000     0.570862540000     0.418671965000     0.109233   
C66      C      0.666578510000     0.551568880000     0.456753900000    -0.18174    
C67      C      0.655065813333     0.683876410000     0.299194800000     0.013201   
C68      C      0.625647286667     0.672235475000     0.268850800000    -0.047282   
C69      C      0.634366966667     0.679377975000     0.229137750000    -0.018279   
C70      C      0.338898460000     0.698792265000     0.219444260000    -0.040809   
C71      C      0.367986280000     0.711263465000     0.249476535000    -0.020984   
C72      C      0.359424273333     0.704059930000     0.289211200000    -0.040308   
C73      C      0.608555653333     0.659004820000     0.460016220000     0.015533   
C74      C      0.638020000000     0.670593990000     0.490336150000     0.113115   
C75      C      0.629329466667     0.663454980000     0.030055525000    -0.076438   
C76      C      0.591444890000     0.644089610000     0.039777515000    -0.049951   
C77      C      0.562311100000     0.631666300000     0.009771285000    -0.024704   
C78      C      0.570840733333     0.638870100000     0.470027985000    -0.070822   
C79      C      0.618785323333     0.593030790000     0.332519600000     0.047174   
C80      C      0.650810123333     0.578796870000     0.307089715000    -0.067688   
C81      C      0.646215716667     0.540225065000     0.284294130000     0.000607   
C82      C      0.609981066667     0.515135970000     0.287252725000    -0.051966   
C83      C      0.578548253333     0.528327320000     0.313378780000    -0.021893   
C84      C      0.583016176667     0.566906750000     0.336183520000    -0.043731   
C85      C      0.644782820000     0.749844685000     0.426697400000     0.029968   
C86      C      0.612722456667     0.764066750000     0.452082650000    -0.063334   
C87      C      0.617298033333     0.802621350000     0.474908000000    -0.011386   
C88      C      0.653549466667     0.827701150000     0.472025720000    -0.045898   
C89      C      0.351684926667     0.814519400000     0.445940750000    -0.021684   
C90      C      0.347232460000     0.775957020000     0.423105985000    -0.046215   
C91      C      0.383032043333     0.683788250000     0.383378050000     0.461933   
C92      C      0.547232550000     0.659082415000     0.375840215000     0.225968   
C93      C      0.644647866667     0.676158000000     0.341873765000     0.034416   
C94      C      0.505144866667     0.540146350000     0.374919750000     0.024508   
C95      C      0.425833623333     0.801068850000     0.381936250000     0.049158   
C96      C      0.499373793333     0.995829880000     0.379057650000    -0.078245   
C97      C      0.431604326667     0.845385580000     0.377804250000    -0.099257   
C98      C      0.461901126667     0.975111500000     0.364837750000     0.090312   
C99      C      0.469080040000     0.866098350000     0.392017275000     0.10792    
C100     C      0.431961040000     0.999744920000     0.346364915000    -0.073917   
C101     C      0.499020813333     0.841469550000     0.410483600000    -0.104733   
C102     C      0.438727766667     0.543648540000     0.343261650000     0.026115   
C103     C      0.492251133333     0.797566200000     0.413588315000     0.063967   
C104     C      0.483531823333     0.663484125000     0.306970715000     0.056109   
C105     C      0.408554180000     0.667526975000     0.016822415000     0.026078   
C106     C      0.444743413333     0.687007280000     0.203826740000    -0.063075   
C107     C      0.446938813333     0.680419860000     0.453223375000     0.042525   
C108     C      0.447923223333     0.687055975000     0.245298650000    -0.023374   
C109     C      0.474955646667     0.665969210000     0.179950030000     0.084675   
C110     C      0.481103113333     0.666133925000     0.263455035000     0.026394   
C111     C      0.511423333333     0.645892575000     0.239540620000    -0.017954   
C112     C      0.508329650000     0.645979375000     0.198238180000    -0.067291   
C113     C      0.368549313333     0.657206820000     0.495365620000    -0.07081    
C114     C      0.349836006667     0.616473630000     0.497183100000    -0.043658   
C115     C      0.645214066667     0.606915705000     0.477087200000    -0.05453    
C116     C      0.625543433333     0.638032110000     0.455438020000     0.003169   
C117     C      0.643731266667     0.678811180000     0.453935000000    -0.164613   
C118     C      0.348433556667     0.688443975000     0.473813200000     0.336924   
C119     C      0.518361310000     0.713429900000     0.082669420000     0.046072   
C120     C      0.514454086667     0.748122350000     0.110699410000    -0.056048   
C121     C      0.549720050000     0.765077400000     0.131479935000    -0.012642   
C122     C      0.589130466667     0.747783125000     0.124278470000    -0.046378   
C123     C      0.593362333333     0.713561200000     0.096208325000    -0.008952   
C124     C      0.558175920000     0.696460440000     0.075388625000    -0.068458   
C125     C      0.445422766667     0.679065250000     0.496891650000     0.013708   
C126     C      0.481070716667     0.692766590000     0.019207880000    -0.016095   
C127     C      0.480950913333     0.695056230000     0.060834335000    -0.036219   
C128     C      0.444579026667     0.681641755000     0.080658525000     0.080886   
C129     C      0.408814043333     0.668628275000     0.058509420000    -0.083569   
N130     N      0.474807023333     0.563273785000     0.357363500000    -0.145224   
N131     N      0.456174423333     0.777941100000     0.399490950000    -0.140071   
N132     N      0.452471216667     0.930502750000     0.368531400000    -0.08897    
N133     N      0.478509973333     0.910707150000     0.388323635000    -0.091414   
N134     N      0.442715693333     0.681650340000     0.122733950000    -0.089056   
N135     N      0.473955960000     0.664899230000     0.137711080000    -0.08551    
O136     O      0.342725116667     0.607603735000     0.411990350000    -0.195599   
O137     O      0.403838116667     0.659265130000     0.362680225000    -0.402901   
O138     O      0.526426400000     0.683605475000     0.396538050000    -0.352201   
O139     O      0.531561900000     0.650235550000     0.343125250000    -0.277616   
O140     O      0.398702620000     0.692635060000     0.416093000000    -0.629772   
O141     O      0.587532620000     0.735272700000     0.347228825000    -0.203076   
O142     O      0.510215780000     0.638990315000     0.321986650000    -0.68596    
O143     O      0.469068500000     0.709390650000     0.438003720000    -0.560745   
O144     O      0.458215990000     0.683808550000     0.329858550000    -0.479854   
O145     O      0.424601883333     0.654733700000     0.430586515000    -0.403907   
Zn0      Zn     0.440803340000     0.690888900000     0.912310630000     1.36779    
Zn1      Zn     0.489510626667     0.650762630000     0.846274020000     1.38268    
H2       H      0.646240266667     0.765628200000     0.837640075000     0.009555   
H3       H      0.366664846667     0.542816935000     0.954180630000     0.072608   
H4       H      0.595971233333     0.657548785000     0.775940925000     0.064518   
H5       H      0.611691853333     0.670015665000     0.705896435000     0.033738   
H6       H      0.345542630000     0.704537915000     0.688722520000     0.036614   
H7       H      0.397078950000     0.726839200000     0.742005885000     0.028538   
H8       H      0.381883820000     0.715217320000     0.811882675000     0.052459   
H9       H      0.334375780000     0.685237510000     0.983218450000    -0.151282   
H10      H      0.652040166667     0.672777310000     0.553274870000     0.044585   
H11      H      0.584826900000     0.638331190000     0.570504250000     0.036803   
H12      H      0.533205366667     0.616129800000     0.517271520000     0.04181    
H13      H      0.608065433333     0.796098085000     0.865597935000     0.018468   
H14      H      0.548346000000     0.627750485000     0.947375030000     0.046514   
H15      H      0.345977146667     0.597608945000     0.804780300000     0.065666   
H16      H      0.337467470000     0.529722415000     0.764418485000     0.026729   
H17      H      0.606452800000     0.985263050000     0.769634700000     0.044209   
H18      H      0.550811490000     0.508493015000     0.816189950000     0.036646   
H19      H      0.558926166667     0.575622595000     0.857144950000     0.046951   
H20      H      0.584213366667     0.745257540000     0.954338520000     0.058702   
H21      H      0.592683216667     0.813116850000     0.994746625000     0.032818   
H22      H      0.657059400000     0.857558600000     0.989668050000     0.039691   
H23      H      0.379433076667     0.834345350000     0.943190850000     0.040844   
H24      H      0.563725650000     0.799940550000     0.804784950000     0.08116    
H25      H      0.371358673333     0.767244700000     0.902184130000     0.042627   
H26      H      0.615989400000     0.820316525000     0.796966730000     0.064706   
H27      H      0.600670476667     0.767558750000     0.776711050000     0.079524   
H28      H      0.655417283333     0.546849220000     0.893484350000     0.01951    
H29      H      0.617373866667     0.577285140000     0.921688380000    -0.000814   
H30      H      0.663075033333     0.575013860000     0.982462315000     0.092883   
H31      H      0.647798733333     0.522323310000     0.962042950000     0.059655   
H32      H      0.407228396667     0.862932620000     0.863439470000     0.061836   
H33      H      0.523749750000     0.978282850000     0.893422450000     0.056979   
H34      H      0.402823280000     0.985112900000     0.835234225000     0.053749   
H35      H      0.528161500000     0.856101400000     0.921612830000     0.061267   
H36      H      0.414344326667     0.562296150000     0.830310150000     0.030523   
H37      H      0.516640200000     0.778913200000     0.926537425000     0.040308   
H38      H      0.397515643333     0.785139530000     0.870444900000     0.006421   
H39      H      0.533462723333     0.556080880000     0.886416525000     0.011406   
H40      H      0.424140733333     0.702868520000     0.763078600000     0.051649   
H41      H      0.418723216667     0.703274920000     0.690669450000     0.05224    
H42      H      0.380737676667     0.659781770000     0.574001610000     0.0543     
H43      H      0.537478200000     0.629653950000     0.752712280000     0.066258   
H44      H      0.531984966667     0.630155070000     0.680291950000     0.052007   
H45      H      0.364787990000     0.592128590000     0.513885450000     0.068324   
H46      H      0.631019910000     0.575393720000     0.978340270000     0.028917   
H47      H      0.596169313333     0.630601450000     0.939923465000     0.038915   
H48      H      0.508926800000     0.702916250000     0.504052500000     0.055115   
H49      H      0.628385833333     0.702949250000     0.937333225000     0.095632   
H50      H      0.362199536667     0.720179530000     0.972476185000    -0.023511   
H51      H      0.484138510000     0.761988950000     0.616456200000     0.050359   
H52      H      0.546493733333     0.791660950000     0.653147370000     0.030614   
H53      H      0.616393843333     0.760944000000     0.640398415000     0.037114   
H54      H      0.623910743333     0.700224850000     0.590632120000     0.027015   
H55      H      0.561881333333     0.669735030000     0.553930500000     0.058221   
C56      C      0.618947633333     0.666715965000     0.917333275000    -0.005523   
C57      C      0.624299333333     0.634906350000     0.856739650000    -0.013682   
C58      C      0.639292900000     0.707967490000     0.902467000000    -0.045927   
C59      C      0.611977020000     0.703454630000     0.864282050000     0.124116   
C60      C      0.651615223333     0.639419200000     0.894924650000     0.142161   
C61      C      0.591579180000     0.662497050000     0.879048615000    -0.081106   
C62      C      0.338682573333     0.680379110000     0.880161900000    -0.160121   
C63      C      0.612161120000     0.772003980000     0.840506650000     0.086808   
C64      C      0.597143533333     0.791128200000     0.802321075000    -0.192164   
C65      C      0.651436900000     0.570862540000     0.918671965000     0.109233   
C66      C      0.666578510000     0.551568880000     0.956753900000    -0.18174    
C67      C      0.655065813333     0.683876410000     0.799194800000     0.013201   
C68      C      0.625647286667     0.672235475000     0.768850800000    -0.047282   
C69      C      0.634366966667     0.679377975000     0.729137750000    -0.018279   
C70      C      0.338898460000     0.698792265000     0.719444260000    -0.040809   
C71      C      0.367986280000     0.711263465000     0.749476535000    -0.020984   
C72      C      0.359424273333     0.704059930000     0.789211200000    -0.040308   
C73      C      0.608555653333     0.659004820000     0.960016220000     0.015533   
C74      C      0.638020000000     0.670593990000     0.990336150000     0.113115   
C75      C      0.629329466667     0.663454980000     0.530055525000    -0.076438   
C76      C      0.591444890000     0.644089610000     0.539777515000    -0.049951   
C77      C      0.562311100000     0.631666300000     0.509771285000    -0.024704   
C78      C      0.570840733333     0.638870100000     0.970027985000    -0.070822   
C79      C      0.618785323333     0.593030790000     0.832519600000     0.047174   
C80      C      0.650810123333     0.578796870000     0.807089715000    -0.067688   
C81      C      0.646215716667     0.540225065000     0.784294130000     0.000607   
C82      C      0.609981066667     0.515135970000     0.787252725000    -0.051966   
C83      C      0.578548253333     0.528327320000     0.813378780000    -0.021893   
C84      C      0.583016176667     0.566906750000     0.836183520000    -0.043731   
C85      C      0.644782820000     0.749844685000     0.926697400000     0.029968   
C86      C      0.612722456667     0.764066750000     0.952082650000    -0.063334   
C87      C      0.617298033333     0.802621350000     0.974908000000    -0.011386   
C88      C      0.653549466667     0.827701150000     0.972025720000    -0.045898   
C89      C      0.351684926667     0.814519400000     0.945940750000    -0.021684   
C90      C      0.347232460000     0.775957020000     0.923105985000    -0.046215   
C91      C      0.383032043333     0.683788250000     0.883378050000     0.461933   
C92      C      0.547232550000     0.659082415000     0.875840215000     0.225968   
C93      C      0.644647866667     0.676158000000     0.841873765000     0.034416   
C94      C      0.505144866667     0.540146350000     0.874919750000     0.024508   
C95      C      0.425833623333     0.801068850000     0.881936250000     0.049158   
C96      C      0.499373793333     0.995829880000     0.879057650000    -0.078245   
C97      C      0.431604326667     0.845385580000     0.877804250000    -0.099257   
C98      C      0.461901126667     0.975111500000     0.864837750000     0.090312   
C99      C      0.469080040000     0.866098350000     0.892017275000     0.10792    
C100     C      0.431961040000     0.999744920000     0.846364915000    -0.073917   
C101     C      0.499020813333     0.841469550000     0.910483600000    -0.104733   
C102     C      0.438727766667     0.543648540000     0.843261650000     0.026115   
C103     C      0.492251133333     0.797566200000     0.913588315000     0.063967   
C104     C      0.483531823333     0.663484125000     0.806970715000     0.056109   
C105     C      0.408554180000     0.667526975000     0.516822415000     0.026078   
C106     C      0.444743413333     0.687007280000     0.703826740000    -0.063075   
C107     C      0.446938813333     0.680419860000     0.953223375000     0.042525   
C108     C      0.447923223333     0.687055975000     0.745298650000    -0.023374   
C109     C      0.474955646667     0.665969210000     0.679950030000     0.084675   
C110     C      0.481103113333     0.666133925000     0.763455035000     0.026394   
C111     C      0.511423333333     0.645892575000     0.739540620000    -0.017954   
C112     C      0.508329650000     0.645979375000     0.698238180000    -0.067291   
C113     C      0.368549313333     0.657206820000     0.995365620000    -0.07081    
C114     C      0.349836006667     0.616473630000     0.997183100000    -0.043658   
C115     C      0.645214066667     0.606915705000     0.977087200000    -0.05453    
C116     C      0.625543433333     0.638032110000     0.955438020000     0.003169   
C117     C      0.643731266667     0.678811180000     0.953935000000    -0.164613   
C118     C      0.348433556667     0.688443975000     0.973813200000     0.336924   
C119     C      0.518361310000     0.713429900000     0.582669420000     0.046072   
C120     C      0.514454086667     0.748122350000     0.610699410000    -0.056048   
C121     C      0.549720050000     0.765077400000     0.631479935000    -0.012642   
C122     C      0.589130466667     0.747783125000     0.624278470000    -0.046378   
C123     C      0.593362333333     0.713561200000     0.596208325000    -0.008952   
C124     C      0.558175920000     0.696460440000     0.575388625000    -0.068458   
C125     C      0.445422766667     0.679065250000     0.996891650000     0.013708   
C126     C      0.481070716667     0.692766590000     0.519207880000    -0.016095   
C127     C      0.480950913333     0.695056230000     0.560834335000    -0.036219   
C128     C      0.444579026667     0.681641755000     0.580658525000     0.080886   
C129     C      0.408814043333     0.668628275000     0.558509420000    -0.083569   
N130     N      0.474807023333     0.563273785000     0.857363500000    -0.145224   
N131     N      0.456174423333     0.777941100000     0.899490950000    -0.140071   
N132     N      0.452471216667     0.930502750000     0.868531400000    -0.08897    
N133     N      0.478509973333     0.910707150000     0.888323635000    -0.091414   
N134     N      0.442715693333     0.681650340000     0.622733950000    -0.089056   
N135     N      0.473955960000     0.664899230000     0.637711080000    -0.08551    
O136     O      0.342725116667     0.607603735000     0.911990350000    -0.195599   
O137     O      0.403838116667     0.659265130000     0.862680225000    -0.402901   
O138     O      0.526426400000     0.683605475000     0.896538050000    -0.352201   
O139     O      0.531561900000     0.650235550000     0.843125250000    -0.277616   
O140     O      0.398702620000     0.692635060000     0.916093000000    -0.629772   
O141     O      0.587532620000     0.735272700000     0.847228825000    -0.203076   
O142     O      0.510215780000     0.638990315000     0.821986650000    -0.68596    
O143     O      0.469068500000     0.709390650000     0.938003720000    -0.560745   
O144     O      0.458215990000     0.683808550000     0.829858550000    -0.479854   
O145     O      0.424601883333     0.654733700000     0.930586515000    -0.403907   
Zn0      Zn     0.774136673333     0.190888900000     0.412310630000     1.36779    
Zn1      Zn     0.822843960000     0.150762630000     0.346274020000     1.38268    
H2       H      0.979573600000     0.265628200000     0.337640075000     0.009555   
H3       H      0.699998180000     0.042816935000     0.454180630000     0.072608   
H4       H      0.929304566667     0.157548785000     0.275940925000     0.064518   
H5       H      0.945025186667     0.170015665000     0.205896435000     0.033738   
H6       H      0.678875963333     0.204537915000     0.188722520000     0.036614   
H7       H      0.730412283333     0.226839200000     0.242005885000     0.028538   
H8       H      0.715217153333     0.215217320000     0.311882675000     0.052459   
H9       H      0.667709113333     0.185237510000     0.483218450000    -0.151282   
H10      H      0.985373500000     0.172777310000     0.053274870000     0.044585   
H11      H      0.918160233333     0.138331190000     0.070504250000     0.036803   
H12      H      0.866538700000     0.116129800000     0.017271520000     0.04181    
H13      H      0.941398766667     0.296098085000     0.365597935000     0.018468   
H14      H      0.881679333333     0.127750485000     0.447375030000     0.046514   
H15      H      0.679310480000     0.097608945000     0.304780300000     0.065666   
H16      H      0.670800803333     0.029722415000     0.264418485000     0.026729   
H17      H      0.939786133333     0.485263050000     0.269634700000     0.044209   
H18      H      0.884144823333     0.008493015000     0.316189950000     0.036646   
H19      H      0.892259500000     0.075622595000     0.357144950000     0.046951   
H20      H      0.917546700000     0.245257540000     0.454338520000     0.058702   
H21      H      0.926016550000     0.313116850000     0.494746625000     0.032818   
H22      H      0.990392733333     0.357558600000     0.489668050000     0.039691   
H23      H      0.712766410000     0.334345350000     0.443190850000     0.040844   
H24      H      0.897058983333     0.299940550000     0.304784950000     0.08116    
H25      H      0.704692006667     0.267244700000     0.402184130000     0.042627   
H26      H      0.949322733333     0.320316525000     0.296966730000     0.064706   
H27      H      0.934003810000     0.267558750000     0.276711050000     0.079524   
H28      H      0.988750616667     0.046849220000     0.393484350000     0.01951    
H29      H      0.950707200000     0.077285140000     0.421688380000    -0.000814   
H30      H      0.996408366667     0.075013860000     0.482462315000     0.092883   
H31      H      0.981132066667     0.022323310000     0.462042950000     0.059655   
H32      H      0.740561730000     0.362932620000     0.363439470000     0.061836   
H33      H      0.857083083333     0.478282850000     0.393422450000     0.056979   
H34      H      0.736156613333     0.485112900000     0.335234225000     0.053749   
H35      H      0.861494833333     0.356101400000     0.421612830000     0.061267   
H36      H      0.747677660000     0.062296150000     0.330310150000     0.030523   
H37      H      0.849973533333     0.278913200000     0.426537425000     0.040308   
H38      H      0.730848976667     0.285139530000     0.370444900000     0.006421   
H39      H      0.866796056667     0.056080880000     0.386416525000     0.011406   
H40      H      0.757474066667     0.202868520000     0.263078600000     0.051649   
H41      H      0.752056550000     0.203274920000     0.190669450000     0.05224    
H42      H      0.714071010000     0.159781770000     0.074001610000     0.0543     
H43      H      0.870811533333     0.129653950000     0.252712280000     0.066258   
H44      H      0.865318300000     0.130155070000     0.180291950000     0.052007   
H45      H      0.698121323333     0.092128590000     0.013885450000     0.068324   
H46      H      0.964353243333     0.075393720000     0.478340270000     0.028917   
H47      H      0.929502646667     0.130601450000     0.439923465000     0.038915   
H48      H      0.842260133333     0.202916250000     0.004052500000     0.055115   
H49      H      0.961719166667     0.202949250000     0.437333225000     0.095632   
H50      H      0.695532870000     0.220179530000     0.472476185000    -0.023511   
H51      H      0.817471843333     0.261988950000     0.116456200000     0.050359   
H52      H      0.879827066667     0.291660950000     0.153147370000     0.030614   
H53      H      0.949727176667     0.260944000000     0.140398415000     0.037114   
H54      H      0.957244076667     0.200224850000     0.090632120000     0.027015   
H55      H      0.895214666667     0.169735030000     0.053930500000     0.058221   
C56      C      0.952280966667     0.166715965000     0.417333275000    -0.005523   
C57      C      0.957632666667     0.134906350000     0.356739650000    -0.013682   
C58      C      0.972626233333     0.207967490000     0.402467000000    -0.045927   
C59      C      0.945310353333     0.203454630000     0.364282050000     0.124116   
C60      C      0.984948556667     0.139419200000     0.394924650000     0.142161   
C61      C      0.924912513333     0.162497050000     0.379048615000    -0.081106   
C62      C      0.672015906667     0.180379110000     0.380161900000    -0.160121   
C63      C      0.945494453333     0.272003980000     0.340506650000     0.086808   
C64      C      0.930476866667     0.291128200000     0.302321075000    -0.192164   
C65      C      0.984770233333     0.070862540000     0.418671965000     0.109233   
C66      C      0.999911843333     0.051568880000     0.456753900000    -0.18174    
C67      C      0.988399146667     0.183876410000     0.299194800000     0.013201   
C68      C      0.958980620000     0.172235475000     0.268850800000    -0.047282   
C69      C      0.967700300000     0.179377975000     0.229137750000    -0.018279   
C70      C      0.672231793333     0.198792265000     0.219444260000    -0.040809   
C71      C      0.701319613333     0.211263465000     0.249476535000    -0.020984   
C72      C      0.692757606667     0.204059930000     0.289211200000    -0.040308   
C73      C      0.941888986667     0.159004820000     0.460016220000     0.015533   
C74      C      0.971353333333     0.170593990000     0.490336150000     0.113115   
C75      C      0.962662800000     0.163454980000     0.030055525000    -0.076438   
C76      C      0.924778223333     0.144089610000     0.039777515000    -0.049951   
C77      C      0.895644433333     0.131666300000     0.009771285000    -0.024704   
C78      C      0.904174066667     0.138870100000     0.470027985000    -0.070822   
C79      C      0.952118656667     0.093030790000     0.332519600000     0.047174   
C80      C      0.984143456667     0.078796870000     0.307089715000    -0.067688   
C81      C      0.979549050000     0.040225065000     0.284294130000     0.000607   
C82      C      0.943314400000     0.015135970000     0.287252725000    -0.051966   
C83      C      0.911881586667     0.028327320000     0.313378780000    -0.021893   
C84      C      0.916349510000     0.066906750000     0.336183520000    -0.043731   
C85      C      0.978116153333     0.249844685000     0.426697400000     0.029968   
C86      C      0.946055790000     0.264066750000     0.452082650000    -0.063334   
C87      C      0.950631366667     0.302621350000     0.474908000000    -0.011386   
C88      C      0.986882800000     0.327701150000     0.472025720000    -0.045898   
C89      C      0.685018260000     0.314519400000     0.445940750000    -0.021684   
C90      C      0.680565793333     0.275957020000     0.423105985000    -0.046215   
C91      C      0.716365376667     0.183788250000     0.383378050000     0.461933   
C92      C      0.880565883333     0.159082415000     0.375840215000     0.225968   
C93      C      0.977981200000     0.176158000000     0.341873765000     0.034416   
C94      C      0.838478200000     0.040146350000     0.374919750000     0.024508   
C95      C      0.759166956667     0.301068850000     0.381936250000     0.049158   
C96      C      0.832707126667     0.495829880000     0.379057650000    -0.078245   
C97      C      0.764937660000     0.345385580000     0.377804250000    -0.099257   
C98      C      0.795234460000     0.475111500000     0.364837750000     0.090312   
C99      C      0.802413373333     0.366098350000     0.392017275000     0.10792    
C100     C      0.765294373333     0.499744920000     0.346364915000    -0.073917   
C101     C      0.832354146667     0.341469550000     0.410483600000    -0.104733   
C102     C      0.772061100000     0.043648540000     0.343261650000     0.026115   
C103     C      0.825584466667     0.297566200000     0.413588315000     0.063967   
C104     C      0.816865156667     0.163484125000     0.306970715000     0.056109   
C105     C      0.741887513333     0.167526975000     0.016822415000     0.026078   
C106     C      0.778076746667     0.187007280000     0.203826740000    -0.063075   
C107     C      0.780272146667     0.180419860000     0.453223375000     0.042525   
C108     C      0.781256556667     0.187055975000     0.245298650000    -0.023374   
C109     C      0.808288980000     0.165969210000     0.179950030000     0.084675   
C110     C      0.814436446667     0.166133925000     0.263455035000     0.026394   
C111     C      0.844756666667     0.145892575000     0.239540620000    -0.017954   
C112     C      0.841662983333     0.145979375000     0.198238180000    -0.067291   
C113     C      0.701882646667     0.157206820000     0.495365620000    -0.07081    
C114     C      0.683169340000     0.116473630000     0.497183100000    -0.043658   
C115     C      0.978547400000     0.106915705000     0.477087200000    -0.05453    
C116     C      0.958876766667     0.138032110000     0.455438020000     0.003169   
C117     C      0.977064600000     0.178811180000     0.453935000000    -0.164613   
C118     C      0.681766890000     0.188443975000     0.473813200000     0.336924   
C119     C      0.851694643333     0.213429900000     0.082669420000     0.046072   
C120     C      0.847787420000     0.248122350000     0.110699410000    -0.056048   
C121     C      0.883053383333     0.265077400000     0.131479935000    -0.012642   
C122     C      0.922463800000     0.247783125000     0.124278470000    -0.046378   
C123     C      0.926695666667     0.213561200000     0.096208325000    -0.008952   
C124     C      0.891509253333     0.196460440000     0.075388625000    -0.068458   
C125     C      0.778756100000     0.179065250000     0.496891650000     0.013708   
C126     C      0.814404050000     0.192766590000     0.019207880000    -0.016095   
C127     C      0.814284246667     0.195056230000     0.060834335000    -0.036219   
C128     C      0.777912360000     0.181641755000     0.080658525000     0.080886   
C129     C      0.742147376667     0.168628275000     0.058509420000    -0.083569   
N130     N      0.808140356667     0.063273785000     0.357363500000    -0.145224   
N131     N      0.789507756667     0.277941100000     0.399490950000    -0.140071   
N132     N      0.785804550000     0.430502750000     0.368531400000    -0.08897    
N133     N      0.811843306667     0.410707150000     0.388323635000    -0.091414   
N134     N      0.776049026667     0.181650340000     0.122733950000    -0.089056   
N135     N      0.807289293333     0.164899230000     0.137711080000    -0.08551    
O136     O      0.676058450000     0.107603735000     0.411990350000    -0.195599   
O137     O      0.737171450000     0.159265130000     0.362680225000    -0.402901   
O138     O      0.859759733333     0.183605475000     0.396538050000    -0.352201   
O139     O      0.864895233333     0.150235550000     0.343125250000    -0.277616   
O140     O      0.732035953333     0.192635060000     0.416093000000    -0.629772   
O141     O      0.920865953333     0.235272700000     0.347228825000    -0.203076   
O142     O      0.843549113333     0.138990315000     0.321986650000    -0.68596    
O143     O      0.802401833333     0.209390650000     0.438003720000    -0.560745   
O144     O      0.791549323333     0.183808550000     0.329858550000    -0.479854   
O145     O      0.757935216667     0.154733700000     0.430586515000    -0.403907   
Zn0      Zn     0.774136673333     0.190888900000     0.912310630000     1.36779    
Zn1      Zn     0.822843960000     0.150762630000     0.846274020000     1.38268    
H2       H      0.979573600000     0.265628200000     0.837640075000     0.009555   
H3       H      0.699998180000     0.042816935000     0.954180630000     0.072608   
H4       H      0.929304566667     0.157548785000     0.775940925000     0.064518   
H5       H      0.945025186667     0.170015665000     0.705896435000     0.033738   
H6       H      0.678875963333     0.204537915000     0.688722520000     0.036614   
H7       H      0.730412283333     0.226839200000     0.742005885000     0.028538   
H8       H      0.715217153333     0.215217320000     0.811882675000     0.052459   
H9       H      0.667709113333     0.185237510000     0.983218450000    -0.151282   
H10      H      0.985373500000     0.172777310000     0.553274870000     0.044585   
H11      H      0.918160233333     0.138331190000     0.570504250000     0.036803   
H12      H      0.866538700000     0.116129800000     0.517271520000     0.04181    
H13      H      0.941398766667     0.296098085000     0.865597935000     0.018468   
H14      H      0.881679333333     0.127750485000     0.947375030000     0.046514   
H15      H      0.679310480000     0.097608945000     0.804780300000     0.065666   
H16      H      0.670800803333     0.029722415000     0.764418485000     0.026729   
H17      H      0.939786133333     0.485263050000     0.769634700000     0.044209   
H18      H      0.884144823333     0.008493015000     0.816189950000     0.036646   
H19      H      0.892259500000     0.075622595000     0.857144950000     0.046951   
H20      H      0.917546700000     0.245257540000     0.954338520000     0.058702   
H21      H      0.926016550000     0.313116850000     0.994746625000     0.032818   
H22      H      0.990392733333     0.357558600000     0.989668050000     0.039691   
H23      H      0.712766410000     0.334345350000     0.943190850000     0.040844   
H24      H      0.897058983333     0.299940550000     0.804784950000     0.08116    
H25      H      0.704692006667     0.267244700000     0.902184130000     0.042627   
H26      H      0.949322733333     0.320316525000     0.796966730000     0.064706   
H27      H      0.934003810000     0.267558750000     0.776711050000     0.079524   
H28      H      0.988750616667     0.046849220000     0.893484350000     0.01951    
H29      H      0.950707200000     0.077285140000     0.921688380000    -0.000814   
H30      H      0.996408366667     0.075013860000     0.982462315000     0.092883   
H31      H      0.981132066667     0.022323310000     0.962042950000     0.059655   
H32      H      0.740561730000     0.362932620000     0.863439470000     0.061836   
H33      H      0.857083083333     0.478282850000     0.893422450000     0.056979   
H34      H      0.736156613333     0.485112900000     0.835234225000     0.053749   
H35      H      0.861494833333     0.356101400000     0.921612830000     0.061267   
H36      H      0.747677660000     0.062296150000     0.830310150000     0.030523   
H37      H      0.849973533333     0.278913200000     0.926537425000     0.040308   
H38      H      0.730848976667     0.285139530000     0.870444900000     0.006421   
H39      H      0.866796056667     0.056080880000     0.886416525000     0.011406   
H40      H      0.757474066667     0.202868520000     0.763078600000     0.051649   
H41      H      0.752056550000     0.203274920000     0.690669450000     0.05224    
H42      H      0.714071010000     0.159781770000     0.574001610000     0.0543     
H43      H      0.870811533333     0.129653950000     0.752712280000     0.066258   
H44      H      0.865318300000     0.130155070000     0.680291950000     0.052007   
H45      H      0.698121323333     0.092128590000     0.513885450000     0.068324   
H46      H      0.964353243333     0.075393720000     0.978340270000     0.028917   
H47      H      0.929502646667     0.130601450000     0.939923465000     0.038915   
H48      H      0.842260133333     0.202916250000     0.504052500000     0.055115   
H49      H      0.961719166667     0.202949250000     0.937333225000     0.095632   
H50      H      0.695532870000     0.220179530000     0.972476185000    -0.023511   
H51      H      0.817471843333     0.261988950000     0.616456200000     0.050359   
H52      H      0.879827066667     0.291660950000     0.653147370000     0.030614   
H53      H      0.949727176667     0.260944000000     0.640398415000     0.037114   
H54      H      0.957244076667     0.200224850000     0.590632120000     0.027015   
H55      H      0.895214666667     0.169735030000     0.553930500000     0.058221   
C56      C      0.952280966667     0.166715965000     0.917333275000    -0.005523   
C57      C      0.957632666667     0.134906350000     0.856739650000    -0.013682   
C58      C      0.972626233333     0.207967490000     0.902467000000    -0.045927   
C59      C      0.945310353333     0.203454630000     0.864282050000     0.124116   
C60      C      0.984948556667     0.139419200000     0.894924650000     0.142161   
C61      C      0.924912513333     0.162497050000     0.879048615000    -0.081106   
C62      C      0.672015906667     0.180379110000     0.880161900000    -0.160121   
C63      C      0.945494453333     0.272003980000     0.840506650000     0.086808   
C64      C      0.930476866667     0.291128200000     0.802321075000    -0.192164   
C65      C      0.984770233333     0.070862540000     0.918671965000     0.109233   
C66      C      0.999911843333     0.051568880000     0.956753900000    -0.18174    
C67      C      0.988399146667     0.183876410000     0.799194800000     0.013201   
C68      C      0.958980620000     0.172235475000     0.768850800000    -0.047282   
C69      C      0.967700300000     0.179377975000     0.729137750000    -0.018279   
C70      C      0.672231793333     0.198792265000     0.719444260000    -0.040809   
C71      C      0.701319613333     0.211263465000     0.749476535000    -0.020984   
C72      C      0.692757606667     0.204059930000     0.789211200000    -0.040308   
C73      C      0.941888986667     0.159004820000     0.960016220000     0.015533   
C74      C      0.971353333333     0.170593990000     0.990336150000     0.113115   
C75      C      0.962662800000     0.163454980000     0.530055525000    -0.076438   
C76      C      0.924778223333     0.144089610000     0.539777515000    -0.049951   
C77      C      0.895644433333     0.131666300000     0.509771285000    -0.024704   
C78      C      0.904174066667     0.138870100000     0.970027985000    -0.070822   
C79      C      0.952118656667     0.093030790000     0.832519600000     0.047174   
C80      C      0.984143456667     0.078796870000     0.807089715000    -0.067688   
C81      C      0.979549050000     0.040225065000     0.784294130000     0.000607   
C82      C      0.943314400000     0.015135970000     0.787252725000    -0.051966   
C83      C      0.911881586667     0.028327320000     0.813378780000    -0.021893   
C84      C      0.916349510000     0.066906750000     0.836183520000    -0.043731   
C85      C      0.978116153333     0.249844685000     0.926697400000     0.029968   
C86      C      0.946055790000     0.264066750000     0.952082650000    -0.063334   
C87      C      0.950631366667     0.302621350000     0.974908000000    -0.011386   
C88      C      0.986882800000     0.327701150000     0.972025720000    -0.045898   
C89      C      0.685018260000     0.314519400000     0.945940750000    -0.021684   
C90      C      0.680565793333     0.275957020000     0.923105985000    -0.046215   
C91      C      0.716365376667     0.183788250000     0.883378050000     0.461933   
C92      C      0.880565883333     0.159082415000     0.875840215000     0.225968   
C93      C      0.977981200000     0.176158000000     0.841873765000     0.034416   
C94      C      0.838478200000     0.040146350000     0.874919750000     0.024508   
C95      C      0.759166956667     0.301068850000     0.881936250000     0.049158   
C96      C      0.832707126667     0.495829880000     0.879057650000    -0.078245   
C97      C      0.764937660000     0.345385580000     0.877804250000    -0.099257   
C98      C      0.795234460000     0.475111500000     0.864837750000     0.090312   
C99      C      0.802413373333     0.366098350000     0.892017275000     0.10792    
C100     C      0.765294373333     0.499744920000     0.846364915000    -0.073917   
C101     C      0.832354146667     0.341469550000     0.910483600000    -0.104733   
C102     C      0.772061100000     0.043648540000     0.843261650000     0.026115   
C103     C      0.825584466667     0.297566200000     0.913588315000     0.063967   
C104     C      0.816865156667     0.163484125000     0.806970715000     0.056109   
C105     C      0.741887513333     0.167526975000     0.516822415000     0.026078   
C106     C      0.778076746667     0.187007280000     0.703826740000    -0.063075   
C107     C      0.780272146667     0.180419860000     0.953223375000     0.042525   
C108     C      0.781256556667     0.187055975000     0.745298650000    -0.023374   
C109     C      0.808288980000     0.165969210000     0.679950030000     0.084675   
C110     C      0.814436446667     0.166133925000     0.763455035000     0.026394   
C111     C      0.844756666667     0.145892575000     0.739540620000    -0.017954   
C112     C      0.841662983333     0.145979375000     0.698238180000    -0.067291   
C113     C      0.701882646667     0.157206820000     0.995365620000    -0.07081    
C114     C      0.683169340000     0.116473630000     0.997183100000    -0.043658   
C115     C      0.978547400000     0.106915705000     0.977087200000    -0.05453    
C116     C      0.958876766667     0.138032110000     0.955438020000     0.003169   
C117     C      0.977064600000     0.178811180000     0.953935000000    -0.164613   
C118     C      0.681766890000     0.188443975000     0.973813200000     0.336924   
C119     C      0.851694643333     0.213429900000     0.582669420000     0.046072   
C120     C      0.847787420000     0.248122350000     0.610699410000    -0.056048   
C121     C      0.883053383333     0.265077400000     0.631479935000    -0.012642   
C122     C      0.922463800000     0.247783125000     0.624278470000    -0.046378   
C123     C      0.926695666667     0.213561200000     0.596208325000    -0.008952   
C124     C      0.891509253333     0.196460440000     0.575388625000    -0.068458   
C125     C      0.778756100000     0.179065250000     0.996891650000     0.013708   
C126     C      0.814404050000     0.192766590000     0.519207880000    -0.016095   
C127     C      0.814284246667     0.195056230000     0.560834335000    -0.036219   
C128     C      0.777912360000     0.181641755000     0.580658525000     0.080886   
C129     C      0.742147376667     0.168628275000     0.558509420000    -0.083569   
N130     N      0.808140356667     0.063273785000     0.857363500000    -0.145224   
N131     N      0.789507756667     0.277941100000     0.899490950000    -0.140071   
N132     N      0.785804550000     0.430502750000     0.868531400000    -0.08897    
N133     N      0.811843306667     0.410707150000     0.888323635000    -0.091414   
N134     N      0.776049026667     0.181650340000     0.622733950000    -0.089056   
N135     N      0.807289293333     0.164899230000     0.637711080000    -0.08551    
O136     O      0.676058450000     0.107603735000     0.911990350000    -0.195599   
O137     O      0.737171450000     0.159265130000     0.862680225000    -0.402901   
O138     O      0.859759733333     0.183605475000     0.896538050000    -0.352201   
O139     O      0.864895233333     0.150235550000     0.843125250000    -0.277616   
O140     O      0.732035953333     0.192635060000     0.916093000000    -0.629772   
O141     O      0.920865953333     0.235272700000     0.847228825000    -0.203076   
O142     O      0.843549113333     0.138990315000     0.821986650000    -0.68596    
O143     O      0.802401833333     0.209390650000     0.938003720000    -0.560745   
O144     O      0.791549323333     0.183808550000     0.829858550000    -0.479854   
O145     O      0.757935216667     0.154733700000     0.930586515000    -0.403907   
Zn0      Zn     0.774136673333     0.690888900000     0.412310630000     1.36779    
Zn1      Zn     0.822843960000     0.650762630000     0.346274020000     1.38268    
H2       H      0.979573600000     0.765628200000     0.337640075000     0.009555   
H3       H      0.699998180000     0.542816935000     0.454180630000     0.072608   
H4       H      0.929304566667     0.657548785000     0.275940925000     0.064518   
H5       H      0.945025186667     0.670015665000     0.205896435000     0.033738   
H6       H      0.678875963333     0.704537915000     0.188722520000     0.036614   
H7       H      0.730412283333     0.726839200000     0.242005885000     0.028538   
H8       H      0.715217153333     0.715217320000     0.311882675000     0.052459   
H9       H      0.667709113333     0.685237510000     0.483218450000    -0.151282   
H10      H      0.985373500000     0.672777310000     0.053274870000     0.044585   
H11      H      0.918160233333     0.638331190000     0.070504250000     0.036803   
H12      H      0.866538700000     0.616129800000     0.017271520000     0.04181    
H13      H      0.941398766667     0.796098085000     0.365597935000     0.018468   
H14      H      0.881679333333     0.627750485000     0.447375030000     0.046514   
H15      H      0.679310480000     0.597608945000     0.304780300000     0.065666   
H16      H      0.670800803333     0.529722415000     0.264418485000     0.026729   
H17      H      0.939786133333     0.985263050000     0.269634700000     0.044209   
H18      H      0.884144823333     0.508493015000     0.316189950000     0.036646   
H19      H      0.892259500000     0.575622595000     0.357144950000     0.046951   
H20      H      0.917546700000     0.745257540000     0.454338520000     0.058702   
H21      H      0.926016550000     0.813116850000     0.494746625000     0.032818   
H22      H      0.990392733333     0.857558600000     0.489668050000     0.039691   
H23      H      0.712766410000     0.834345350000     0.443190850000     0.040844   
H24      H      0.897058983333     0.799940550000     0.304784950000     0.08116    
H25      H      0.704692006667     0.767244700000     0.402184130000     0.042627   
H26      H      0.949322733333     0.820316525000     0.296966730000     0.064706   
H27      H      0.934003810000     0.767558750000     0.276711050000     0.079524   
H28      H      0.988750616667     0.546849220000     0.393484350000     0.01951    
H29      H      0.950707200000     0.577285140000     0.421688380000    -0.000814   
H30      H      0.996408366667     0.575013860000     0.482462315000     0.092883   
H31      H      0.981132066667     0.522323310000     0.462042950000     0.059655   
H32      H      0.740561730000     0.862932620000     0.363439470000     0.061836   
H33      H      0.857083083333     0.978282850000     0.393422450000     0.056979   
H34      H      0.736156613333     0.985112900000     0.335234225000     0.053749   
H35      H      0.861494833333     0.856101400000     0.421612830000     0.061267   
H36      H      0.747677660000     0.562296150000     0.330310150000     0.030523   
H37      H      0.849973533333     0.778913200000     0.426537425000     0.040308   
H38      H      0.730848976667     0.785139530000     0.370444900000     0.006421   
H39      H      0.866796056667     0.556080880000     0.386416525000     0.011406   
H40      H      0.757474066667     0.702868520000     0.263078600000     0.051649   
H41      H      0.752056550000     0.703274920000     0.190669450000     0.05224    
H42      H      0.714071010000     0.659781770000     0.074001610000     0.0543     
H43      H      0.870811533333     0.629653950000     0.252712280000     0.066258   
H44      H      0.865318300000     0.630155070000     0.180291950000     0.052007   
H45      H      0.698121323333     0.592128590000     0.013885450000     0.068324   
H46      H      0.964353243333     0.575393720000     0.478340270000     0.028917   
H47      H      0.929502646667     0.630601450000     0.439923465000     0.038915   
H48      H      0.842260133333     0.702916250000     0.004052500000     0.055115   
H49      H      0.961719166667     0.702949250000     0.437333225000     0.095632   
H50      H      0.695532870000     0.720179530000     0.472476185000    -0.023511   
H51      H      0.817471843333     0.761988950000     0.116456200000     0.050359   
H52      H      0.879827066667     0.791660950000     0.153147370000     0.030614   
H53      H      0.949727176667     0.760944000000     0.140398415000     0.037114   
H54      H      0.957244076667     0.700224850000     0.090632120000     0.027015   
H55      H      0.895214666667     0.669735030000     0.053930500000     0.058221   
C56      C      0.952280966667     0.666715965000     0.417333275000    -0.005523   
C57      C      0.957632666667     0.634906350000     0.356739650000    -0.013682   
C58      C      0.972626233333     0.707967490000     0.402467000000    -0.045927   
C59      C      0.945310353333     0.703454630000     0.364282050000     0.124116   
C60      C      0.984948556667     0.639419200000     0.394924650000     0.142161   
C61      C      0.924912513333     0.662497050000     0.379048615000    -0.081106   
C62      C      0.672015906667     0.680379110000     0.380161900000    -0.160121   
C63      C      0.945494453333     0.772003980000     0.340506650000     0.086808   
C64      C      0.930476866667     0.791128200000     0.302321075000    -0.192164   
C65      C      0.984770233333     0.570862540000     0.418671965000     0.109233   
C66      C      0.999911843333     0.551568880000     0.456753900000    -0.18174    
C67      C      0.988399146667     0.683876410000     0.299194800000     0.013201   
C68      C      0.958980620000     0.672235475000     0.268850800000    -0.047282   
C69      C      0.967700300000     0.679377975000     0.229137750000    -0.018279   
C70      C      0.672231793333     0.698792265000     0.219444260000    -0.040809   
C71      C      0.701319613333     0.711263465000     0.249476535000    -0.020984   
C72      C      0.692757606667     0.704059930000     0.289211200000    -0.040308   
C73      C      0.941888986667     0.659004820000     0.460016220000     0.015533   
C74      C      0.971353333333     0.670593990000     0.490336150000     0.113115   
C75      C      0.962662800000     0.663454980000     0.030055525000    -0.076438   
C76      C      0.924778223333     0.644089610000     0.039777515000    -0.049951   
C77      C      0.895644433333     0.631666300000     0.009771285000    -0.024704   
C78      C      0.904174066667     0.638870100000     0.470027985000    -0.070822   
C79      C      0.952118656667     0.593030790000     0.332519600000     0.047174   
C80      C      0.984143456667     0.578796870000     0.307089715000    -0.067688   
C81      C      0.979549050000     0.540225065000     0.284294130000     0.000607   
C82      C      0.943314400000     0.515135970000     0.287252725000    -0.051966   
C83      C      0.911881586667     0.528327320000     0.313378780000    -0.021893   
C84      C      0.916349510000     0.566906750000     0.336183520000    -0.043731   
C85      C      0.978116153333     0.749844685000     0.426697400000     0.029968   
C86      C      0.946055790000     0.764066750000     0.452082650000    -0.063334   
C87      C      0.950631366667     0.802621350000     0.474908000000    -0.011386   
C88      C      0.986882800000     0.827701150000     0.472025720000    -0.045898   
C89      C      0.685018260000     0.814519400000     0.445940750000    -0.021684   
C90      C      0.680565793333     0.775957020000     0.423105985000    -0.046215   
C91      C      0.716365376667     0.683788250000     0.383378050000     0.461933   
C92      C      0.880565883333     0.659082415000     0.375840215000     0.225968   
C93      C      0.977981200000     0.676158000000     0.341873765000     0.034416   
C94      C      0.838478200000     0.540146350000     0.374919750000     0.024508   
C95      C      0.759166956667     0.801068850000     0.381936250000     0.049158   
C96      C      0.832707126667     0.995829880000     0.379057650000    -0.078245   
C97      C      0.764937660000     0.845385580000     0.377804250000    -0.099257   
C98      C      0.795234460000     0.975111500000     0.364837750000     0.090312   
C99      C      0.802413373333     0.866098350000     0.392017275000     0.10792    
C100     C      0.765294373333     0.999744920000     0.346364915000    -0.073917   
C101     C      0.832354146667     0.841469550000     0.410483600000    -0.104733   
C102     C      0.772061100000     0.543648540000     0.343261650000     0.026115   
C103     C      0.825584466667     0.797566200000     0.413588315000     0.063967   
C104     C      0.816865156667     0.663484125000     0.306970715000     0.056109   
C105     C      0.741887513333     0.667526975000     0.016822415000     0.026078   
C106     C      0.778076746667     0.687007280000     0.203826740000    -0.063075   
C107     C      0.780272146667     0.680419860000     0.453223375000     0.042525   
C108     C      0.781256556667     0.687055975000     0.245298650000    -0.023374   
C109     C      0.808288980000     0.665969210000     0.179950030000     0.084675   
C110     C      0.814436446667     0.666133925000     0.263455035000     0.026394   
C111     C      0.844756666667     0.645892575000     0.239540620000    -0.017954   
C112     C      0.841662983333     0.645979375000     0.198238180000    -0.067291   
C113     C      0.701882646667     0.657206820000     0.495365620000    -0.07081    
C114     C      0.683169340000     0.616473630000     0.497183100000    -0.043658   
C115     C      0.978547400000     0.606915705000     0.477087200000    -0.05453    
C116     C      0.958876766667     0.638032110000     0.455438020000     0.003169   
C117     C      0.977064600000     0.678811180000     0.453935000000    -0.164613   
C118     C      0.681766890000     0.688443975000     0.473813200000     0.336924   
C119     C      0.851694643333     0.713429900000     0.082669420000     0.046072   
C120     C      0.847787420000     0.748122350000     0.110699410000    -0.056048   
C121     C      0.883053383333     0.765077400000     0.131479935000    -0.012642   
C122     C      0.922463800000     0.747783125000     0.124278470000    -0.046378   
C123     C      0.926695666667     0.713561200000     0.096208325000    -0.008952   
C124     C      0.891509253333     0.696460440000     0.075388625000    -0.068458   
C125     C      0.778756100000     0.679065250000     0.496891650000     0.013708   
C126     C      0.814404050000     0.692766590000     0.019207880000    -0.016095   
C127     C      0.814284246667     0.695056230000     0.060834335000    -0.036219   
C128     C      0.777912360000     0.681641755000     0.080658525000     0.080886   
C129     C      0.742147376667     0.668628275000     0.058509420000    -0.083569   
N130     N      0.808140356667     0.563273785000     0.357363500000    -0.145224   
N131     N      0.789507756667     0.777941100000     0.399490950000    -0.140071   
N132     N      0.785804550000     0.930502750000     0.368531400000    -0.08897    
N133     N      0.811843306667     0.910707150000     0.388323635000    -0.091414   
N134     N      0.776049026667     0.681650340000     0.122733950000    -0.089056   
N135     N      0.807289293333     0.664899230000     0.137711080000    -0.08551    
O136     O      0.676058450000     0.607603735000     0.411990350000    -0.195599   
O137     O      0.737171450000     0.659265130000     0.362680225000    -0.402901   
O138     O      0.859759733333     0.683605475000     0.396538050000    -0.352201   
O139     O      0.864895233333     0.650235550000     0.343125250000    -0.277616   
O140     O      0.732035953333     0.692635060000     0.416093000000    -0.629772   
O141     O      0.920865953333     0.735272700000     0.347228825000    -0.203076   
O142     O      0.843549113333     0.638990315000     0.321986650000    -0.68596    
O143     O      0.802401833333     0.709390650000     0.438003720000    -0.560745   
O144     O      0.791549323333     0.683808550000     0.329858550000    -0.479854   
O145     O      0.757935216667     0.654733700000     0.430586515000    -0.403907   
Zn0      Zn     0.774136673333     0.690888900000     0.912310630000     1.36779    
Zn1      Zn     0.822843960000     0.650762630000     0.846274020000     1.38268    
H2       H      0.979573600000     0.765628200000     0.837640075000     0.009555   
H3       H      0.699998180000     0.542816935000     0.954180630000     0.072608   
H4       H      0.929304566667     0.657548785000     0.775940925000     0.064518   
H5       H      0.945025186667     0.670015665000     0.705896435000     0.033738   
H6       H      0.678875963333     0.704537915000     0.688722520000     0.036614   
H7       H      0.730412283333     0.726839200000     0.742005885000     0.028538   
H8       H      0.715217153333     0.715217320000     0.811882675000     0.052459   
H9       H      0.667709113333     0.685237510000     0.983218450000    -0.151282   
H10      H      0.985373500000     0.672777310000     0.553274870000     0.044585   
H11      H      0.918160233333     0.638331190000     0.570504250000     0.036803   
H12      H      0.866538700000     0.616129800000     0.517271520000     0.04181    
H13      H      0.941398766667     0.796098085000     0.865597935000     0.018468   
H14      H      0.881679333333     0.627750485000     0.947375030000     0.046514   
H15      H      0.679310480000     0.597608945000     0.804780300000     0.065666   
H16      H      0.670800803333     0.529722415000     0.764418485000     0.026729   
H17      H      0.939786133333     0.985263050000     0.769634700000     0.044209   
H18      H      0.884144823333     0.508493015000     0.816189950000     0.036646   
H19      H      0.892259500000     0.575622595000     0.857144950000     0.046951   
H20      H      0.917546700000     0.745257540000     0.954338520000     0.058702   
H21      H      0.926016550000     0.813116850000     0.994746625000     0.032818   
H22      H      0.990392733333     0.857558600000     0.989668050000     0.039691   
H23      H      0.712766410000     0.834345350000     0.943190850000     0.040844   
H24      H      0.897058983333     0.799940550000     0.804784950000     0.08116    
H25      H      0.704692006667     0.767244700000     0.902184130000     0.042627   
H26      H      0.949322733333     0.820316525000     0.796966730000     0.064706   
H27      H      0.934003810000     0.767558750000     0.776711050000     0.079524   
H28      H      0.988750616667     0.546849220000     0.893484350000     0.01951    
H29      H      0.950707200000     0.577285140000     0.921688380000    -0.000814   
H30      H      0.996408366667     0.575013860000     0.982462315000     0.092883   
H31      H      0.981132066667     0.522323310000     0.962042950000     0.059655   
H32      H      0.740561730000     0.862932620000     0.863439470000     0.061836   
H33      H      0.857083083333     0.978282850000     0.893422450000     0.056979   
H34      H      0.736156613333     0.985112900000     0.835234225000     0.053749   
H35      H      0.861494833333     0.856101400000     0.921612830000     0.061267   
H36      H      0.747677660000     0.562296150000     0.830310150000     0.030523   
H37      H      0.849973533333     0.778913200000     0.926537425000     0.040308   
H38      H      0.730848976667     0.785139530000     0.870444900000     0.006421   
H39      H      0.866796056667     0.556080880000     0.886416525000     0.011406   
H40      H      0.757474066667     0.702868520000     0.763078600000     0.051649   
H41      H      0.752056550000     0.703274920000     0.690669450000     0.05224    
H42      H      0.714071010000     0.659781770000     0.574001610000     0.0543     
H43      H      0.870811533333     0.629653950000     0.752712280000     0.066258   
H44      H      0.865318300000     0.630155070000     0.680291950000     0.052007   
H45      H      0.698121323333     0.592128590000     0.513885450000     0.068324   
H46      H      0.964353243333     0.575393720000     0.978340270000     0.028917   
H47      H      0.929502646667     0.630601450000     0.939923465000     0.038915   
H48      H      0.842260133333     0.702916250000     0.504052500000     0.055115   
H49      H      0.961719166667     0.702949250000     0.937333225000     0.095632   
H50      H      0.695532870000     0.720179530000     0.972476185000    -0.023511   
H51      H      0.817471843333     0.761988950000     0.616456200000     0.050359   
H52      H      0.879827066667     0.791660950000     0.653147370000     0.030614   
H53      H      0.949727176667     0.760944000000     0.640398415000     0.037114   
H54      H      0.957244076667     0.700224850000     0.590632120000     0.027015   
H55      H      0.895214666667     0.669735030000     0.553930500000     0.058221   
C56      C      0.952280966667     0.666715965000     0.917333275000    -0.005523   
C57      C      0.957632666667     0.634906350000     0.856739650000    -0.013682   
C58      C      0.972626233333     0.707967490000     0.902467000000    -0.045927   
C59      C      0.945310353333     0.703454630000     0.864282050000     0.124116   
C60      C      0.984948556667     0.639419200000     0.894924650000     0.142161   
C61      C      0.924912513333     0.662497050000     0.879048615000    -0.081106   
C62      C      0.672015906667     0.680379110000     0.880161900000    -0.160121   
C63      C      0.945494453333     0.772003980000     0.840506650000     0.086808   
C64      C      0.930476866667     0.791128200000     0.802321075000    -0.192164   
C65      C      0.984770233333     0.570862540000     0.918671965000     0.109233   
C66      C      0.999911843333     0.551568880000     0.956753900000    -0.18174    
C67      C      0.988399146667     0.683876410000     0.799194800000     0.013201   
C68      C      0.958980620000     0.672235475000     0.768850800000    -0.047282   
C69      C      0.967700300000     0.679377975000     0.729137750000    -0.018279   
C70      C      0.672231793333     0.698792265000     0.719444260000    -0.040809   
C71      C      0.701319613333     0.711263465000     0.749476535000    -0.020984   
C72      C      0.692757606667     0.704059930000     0.789211200000    -0.040308   
C73      C      0.941888986667     0.659004820000     0.960016220000     0.015533   
C74      C      0.971353333333     0.670593990000     0.990336150000     0.113115   
C75      C      0.962662800000     0.663454980000     0.530055525000    -0.076438   
C76      C      0.924778223333     0.644089610000     0.539777515000    -0.049951   
C77      C      0.895644433333     0.631666300000     0.509771285000    -0.024704   
C78      C      0.904174066667     0.638870100000     0.970027985000    -0.070822   
C79      C      0.952118656667     0.593030790000     0.832519600000     0.047174   
C80      C      0.984143456667     0.578796870000     0.807089715000    -0.067688   
C81      C      0.979549050000     0.540225065000     0.784294130000     0.000607   
C82      C      0.943314400000     0.515135970000     0.787252725000    -0.051966   
C83      C      0.911881586667     0.528327320000     0.813378780000    -0.021893   
C84      C      0.916349510000     0.566906750000     0.836183520000    -0.043731   
C85      C      0.978116153333     0.749844685000     0.926697400000     0.029968   
C86      C      0.946055790000     0.764066750000     0.952082650000    -0.063334   
C87      C      0.950631366667     0.802621350000     0.974908000000    -0.011386   
C88      C      0.986882800000     0.827701150000     0.972025720000    -0.045898   
C89      C      0.685018260000     0.814519400000     0.945940750000    -0.021684   
C90      C      0.680565793333     0.775957020000     0.923105985000    -0.046215   
C91      C      0.716365376667     0.683788250000     0.883378050000     0.461933   
C92      C      0.880565883333     0.659082415000     0.875840215000     0.225968   
C93      C      0.977981200000     0.676158000000     0.841873765000     0.034416   
C94      C      0.838478200000     0.540146350000     0.874919750000     0.024508   
C95      C      0.759166956667     0.801068850000     0.881936250000     0.049158   
C96      C      0.832707126667     0.995829880000     0.879057650000    -0.078245   
C97      C      0.764937660000     0.845385580000     0.877804250000    -0.099257   
C98      C      0.795234460000     0.975111500000     0.864837750000     0.090312   
C99      C      0.802413373333     0.866098350000     0.892017275000     0.10792    
C100     C      0.765294373333     0.999744920000     0.846364915000    -0.073917   
C101     C      0.832354146667     0.841469550000     0.910483600000    -0.104733   
C102     C      0.772061100000     0.543648540000     0.843261650000     0.026115   
C103     C      0.825584466667     0.797566200000     0.913588315000     0.063967   
C104     C      0.816865156667     0.663484125000     0.806970715000     0.056109   
C105     C      0.741887513333     0.667526975000     0.516822415000     0.026078   
C106     C      0.778076746667     0.687007280000     0.703826740000    -0.063075   
C107     C      0.780272146667     0.680419860000     0.953223375000     0.042525   
C108     C      0.781256556667     0.687055975000     0.745298650000    -0.023374   
C109     C      0.808288980000     0.665969210000     0.679950030000     0.084675   
C110     C      0.814436446667     0.666133925000     0.763455035000     0.026394   
C111     C      0.844756666667     0.645892575000     0.739540620000    -0.017954   
C112     C      0.841662983333     0.645979375000     0.698238180000    -0.067291   
C113     C      0.701882646667     0.657206820000     0.995365620000    -0.07081    
C114     C      0.683169340000     0.616473630000     0.997183100000    -0.043658   
C115     C      0.978547400000     0.606915705000     0.977087200000    -0.05453    
C116     C      0.958876766667     0.638032110000     0.955438020000     0.003169   
C117     C      0.977064600000     0.678811180000     0.953935000000    -0.164613   
C118     C      0.681766890000     0.688443975000     0.973813200000     0.336924   
C119     C      0.851694643333     0.713429900000     0.582669420000     0.046072   
C120     C      0.847787420000     0.748122350000     0.610699410000    -0.056048   
C121     C      0.883053383333     0.765077400000     0.631479935000    -0.012642   
C122     C      0.922463800000     0.747783125000     0.624278470000    -0.046378   
C123     C      0.926695666667     0.713561200000     0.596208325000    -0.008952   
C124     C      0.891509253333     0.696460440000     0.575388625000    -0.068458   
C125     C      0.778756100000     0.679065250000     0.996891650000     0.013708   
C126     C      0.814404050000     0.692766590000     0.519207880000    -0.016095   
C127     C      0.814284246667     0.695056230000     0.560834335000    -0.036219   
C128     C      0.777912360000     0.681641755000     0.580658525000     0.080886   
C129     C      0.742147376667     0.668628275000     0.558509420000    -0.083569   
N130     N      0.808140356667     0.563273785000     0.857363500000    -0.145224   
N131     N      0.789507756667     0.777941100000     0.899490950000    -0.140071   
N132     N      0.785804550000     0.930502750000     0.868531400000    -0.08897    
N133     N      0.811843306667     0.910707150000     0.888323635000    -0.091414   
N134     N      0.776049026667     0.681650340000     0.622733950000    -0.089056   
N135     N      0.807289293333     0.664899230000     0.637711080000    -0.08551    
O136     O      0.676058450000     0.607603735000     0.911990350000    -0.195599   
O137     O      0.737171450000     0.659265130000     0.862680225000    -0.402901   
O138     O      0.859759733333     0.683605475000     0.896538050000    -0.352201   
O139     O      0.864895233333     0.650235550000     0.843125250000    -0.277616   
O140     O      0.732035953333     0.692635060000     0.916093000000    -0.629772   
O141     O      0.920865953333     0.735272700000     0.847228825000    -0.203076   
O142     O      0.843549113333     0.638990315000     0.821986650000    -0.68596    
O143     O      0.802401833333     0.709390650000     0.938003720000    -0.560745   
O144     O      0.791549323333     0.683808550000     0.829858550000    -0.479854   
O145     O      0.757935216667     0.654733700000     0.930586515000    -0.403907   


