data_sample_6_relaxed_charged

_audit_creation_method RASPA-1.0
_audit_creation_date 2026-2-5
_audit_author_name ''

_cell_length_a    25.3946
_cell_length_b    27.3747
_cell_length_c    30.562
_cell_angle_alpha 87.4275
_cell_angle_beta  74.2558
_cell_angle_gamma 82.2359
_cell_volume      20260.5

_symmetry_cell_setting          triclinic
_symmetry_space_group_name_Hall 'P 1'
_symmetry_space_group_name_H-M  'P 1'
_symmetry_Int_Tables_number     1

_symmetry_equiv_pos_as_xyz 'x,y,z'

loop_
_atom_site_label
_atom_site_type_symbol
_atom_site_fract_x
_atom_site_fract_y
_atom_site_fract_z
_atom_site_charge
Zn0      Zn     0.109512190000     0.391258550000     0.438229550000     1.14122    
Zn1      Zn     0.236730280000     0.373371035000     0.410840480000     1.15732    
H2       H      0.298783050000     0.290114000000     0.103106730000     0.046602   
H3       H      0.029315335000     0.352671385000     0.253873200000     0.084732   
H4       H      0.151368720000     0.377115935000     0.077561450000     0.040267   
H5       H      0.192361830000     0.366148900000     0.272397220000     0.046804   
H6       H      0.475812165000     0.414350700000     0.122992635000     0.041277   
H7       H      0.366751520000     0.321420400000     0.227498800000     0.036967   
H8       H      0.357420550000     0.298924350000     0.153329970000     0.045809   
H9       H      0.477579050000     0.388209015000     0.200552650000     0.034028   
H10      H      0.243585110000     0.297177800000     0.051627410000     0.066422   
H11      H      0.199418320000     0.224558725000     0.089714885000     0.049648   
H12      H      0.173876800000     0.251798250000     0.043268090000     0.052152   
H13      H      0.134810270000     0.265317050000     0.100849540000     0.054984   
H14      H      0.082611540000     0.333431700000     0.306199820000     0.090469   
H15      H      0.133708600000     0.259401530000     0.322914420000     0.052442   
H16      H      0.174259690000     0.254956900000     0.264715880000     0.055951   
H17      H      0.101975570000     0.246279565000     0.279229670000     0.049099   
H18      H      0.234725790000     0.124673105000     0.399557085000     0.054792   
H19      H      0.110389995000     0.140748750000     0.449469850000     0.033937   
H20      H      0.021845875000     0.006013630000     0.437916500000     0.032941   
H21      H      0.423408250000     0.024921955000     0.440533900000     0.014055   
H22      H      0.337599950000     0.496665715000     0.437487150000     0.02922    
H23      H      0.478238015000     0.300782025000     0.404110075000     0.035048   
H24      H      0.422775800000     0.239823925000     0.393516400000     0.042979   
H25      H      0.020336985000     0.355274020000     0.420588200000    -0.005413   
H26      H      0.321637630000     0.262184085000     0.404672535000     0.013779   
H27      H      0.286139725000     0.432487250000     0.429552150000     0.01645    
C28      C      0.211295130000     0.313688900000     0.120271905000     0.064504   
C29      C      0.117719225000     0.334987880000     0.236296775000     0.079771   
C30      C      0.262741750000     0.304356150000     0.129624070000    -0.098498   
C31      C      0.067125350000     0.349846750000     0.226560200000    -0.09088    
C32      C      0.281770150000     0.354098150000     0.301577400000     0.304289   
C33      C      0.064739915000     0.407014800000     0.047143535000     0.279939   
C34      C      0.279323950000     0.344075550000     0.255563320000    -0.08523    
C35      C      0.063914890000     0.395970670000     0.094622700000    -0.088672   
C36      C      0.320726635000     0.311835650000     0.179772950000    -0.076476   
C37      C      0.015605270000     0.383852125000     0.173516675000    -0.028139   
C38      C      0.326177650000     0.325405900000     0.221672475000     0.018449   
C39      C      0.014694995000     0.399502700000     0.129573165000     0.040795   
C40      C      0.227422460000     0.348051400000     0.247474000000    -0.000508   
C41      C      0.113309285000     0.375925150000     0.103831125000    -0.003767   
C42      C      0.220566780000     0.330507220000     0.207489060000    -0.013491   
C43      C      0.114328850000     0.355972100000     0.146435110000    -0.012017   
C44      C      0.268227430000     0.315247475000     0.172155650000     0.048048   
C45      C      0.065388605000     0.363027630000     0.182346790000     0.037811   
C46      C      0.167534530000     0.332456700000     0.200361685000    -0.021382   
C47      C      0.164174185000     0.333550200000     0.154997200000    -0.017557   
C48      C      0.177208380000     0.258211000000     0.077983810000    -0.089265   
C49      C      0.132656040000     0.267333950000     0.287181900000    -0.087119   
C50      C      0.186405065000     0.196305720000     0.415338150000     0.09705    
C51      C      0.158703225000     0.069115230000     0.433677000000    -0.003762   
C52      C      0.163784450000     0.291374475000     0.419362300000     0.369413   
C53      C      0.181310050000     0.474040650000     0.429611550000     0.287558   
C54      C      0.168489380000     0.025489570000     0.432056665000    -0.035029   
C55      C      0.176615730000     0.239932030000     0.416934950000    -0.169263   
C56      C      0.150946260000     0.121098145000     0.433990550000    -0.018674   
C57      C      0.194169370000     0.144323550000     0.415039925000    -0.091952   
C58      C      0.443225115000     0.487179000000     0.435890400000    -0.010861   
C59      C      0.346806950000     0.289290520000     0.408813270000     0.040318   
C60      C      0.403254350000     0.276880400000     0.402893335000    -0.05564    
C61      C      0.434752950000     0.312352850000     0.409104600000    -0.022213   
C62      C      0.410243870000     0.361261000000     0.419637700000    -0.002288   
C63      C      0.352845800000     0.372478900000     0.423338450000     0.04875    
C64      C      0.440727850000     0.399617150000     0.424946000000    -0.029967   
C65      C      0.413923830000     0.448740570000     0.431438415000    -0.00872    
C66      C      0.358226030000     0.459157375000     0.433120520000    -0.003521   
C67      C      0.328257500000     0.421631000000     0.429152580000    -0.103575   
C68      C      0.496979775000     0.391426900000     0.424229950000    -0.044746   
C69      C      0.498659075000     0.476708200000     0.434447765000    -0.030308   
N70      N      0.207031610000     0.299883200000     0.077018535000    -0.14488    
N71      N      0.117445075000     0.319648200000     0.281586100000    -0.144153   
N72      N      0.023804365000     0.429626880000     0.428945950000    -0.204004   
N73      N      0.322487600000     0.335785420000     0.419637950000    -0.219796   
O74      O      0.327183050000     0.344396770000     0.312870200000    -0.264399   
O75      O      0.019651650000     0.418804170000     0.035704975000    -0.225054   
O76      O      0.236377670000     0.365670085000     0.332039900000    -0.359336   
O77      O      0.110457055000     0.397530825000     0.016535280000    -0.2446     
O78      O      0.203250365000     0.317528280000     0.402062250000    -0.544835   
O79      O      0.141847270000     0.447892425000     0.446917535000    -0.558925   
O80      O      0.113467960000     0.309975150000     0.438762100000    -0.457002   
O81      O      0.231629700000     0.455445500000     0.410217675000    -0.420179   
Zn0      Zn     0.109512190000     0.391258550000     0.938229550000     1.14122    
Zn1      Zn     0.236730280000     0.373371035000     0.910840480000     1.15732    
H2       H      0.298783050000     0.290114000000     0.603106730000     0.046602   
H3       H      0.029315335000     0.352671385000     0.753873200000     0.084732   
H4       H      0.151368720000     0.377115935000     0.577561450000     0.040267   
H5       H      0.192361830000     0.366148900000     0.772397220000     0.046804   
H6       H      0.475812165000     0.414350700000     0.622992635000     0.041277   
H7       H      0.366751520000     0.321420400000     0.727498800000     0.036967   
H8       H      0.357420550000     0.298924350000     0.653329970000     0.045809   
H9       H      0.477579050000     0.388209015000     0.700552650000     0.034028   
H10      H      0.243585110000     0.297177800000     0.551627410000     0.066422   
H11      H      0.199418320000     0.224558725000     0.589714885000     0.049648   
H12      H      0.173876800000     0.251798250000     0.543268090000     0.052152   
H13      H      0.134810270000     0.265317050000     0.600849540000     0.054984   
H14      H      0.082611540000     0.333431700000     0.806199820000     0.090469   
H15      H      0.133708600000     0.259401530000     0.822914420000     0.052442   
H16      H      0.174259690000     0.254956900000     0.764715880000     0.055951   
H17      H      0.101975570000     0.246279565000     0.779229670000     0.049099   
H18      H      0.234725790000     0.124673105000     0.899557085000     0.054792   
H19      H      0.110389995000     0.140748750000     0.949469850000     0.033937   
H20      H      0.021845875000     0.006013630000     0.937916500000     0.032941   
H21      H      0.423408250000     0.024921955000     0.940533900000     0.014055   
H22      H      0.337599950000     0.496665715000     0.937487150000     0.02922    
H23      H      0.478238015000     0.300782025000     0.904110075000     0.035048   
H24      H      0.422775800000     0.239823925000     0.893516400000     0.042979   
H25      H      0.020336985000     0.355274020000     0.920588200000    -0.005413   
H26      H      0.321637630000     0.262184085000     0.904672535000     0.013779   
H27      H      0.286139725000     0.432487250000     0.929552150000     0.01645    
C28      C      0.211295130000     0.313688900000     0.620271905000     0.064504   
C29      C      0.117719225000     0.334987880000     0.736296775000     0.079771   
C30      C      0.262741750000     0.304356150000     0.629624070000    -0.098498   
C31      C      0.067125350000     0.349846750000     0.726560200000    -0.09088    
C32      C      0.281770150000     0.354098150000     0.801577400000     0.304289   
C33      C      0.064739915000     0.407014800000     0.547143535000     0.279939   
C34      C      0.279323950000     0.344075550000     0.755563320000    -0.08523    
C35      C      0.063914890000     0.395970670000     0.594622700000    -0.088672   
C36      C      0.320726635000     0.311835650000     0.679772950000    -0.076476   
C37      C      0.015605270000     0.383852125000     0.673516675000    -0.028139   
C38      C      0.326177650000     0.325405900000     0.721672475000     0.018449   
C39      C      0.014694995000     0.399502700000     0.629573165000     0.040795   
C40      C      0.227422460000     0.348051400000     0.747474000000    -0.000508   
C41      C      0.113309285000     0.375925150000     0.603831125000    -0.003767   
C42      C      0.220566780000     0.330507220000     0.707489060000    -0.013491   
C43      C      0.114328850000     0.355972100000     0.646435110000    -0.012017   
C44      C      0.268227430000     0.315247475000     0.672155650000     0.048048   
C45      C      0.065388605000     0.363027630000     0.682346790000     0.037811   
C46      C      0.167534530000     0.332456700000     0.700361685000    -0.021382   
C47      C      0.164174185000     0.333550200000     0.654997200000    -0.017557   
C48      C      0.177208380000     0.258211000000     0.577983810000    -0.089265   
C49      C      0.132656040000     0.267333950000     0.787181900000    -0.087119   
C50      C      0.186405065000     0.196305720000     0.915338150000     0.09705    
C51      C      0.158703225000     0.069115230000     0.933677000000    -0.003762   
C52      C      0.163784450000     0.291374475000     0.919362300000     0.369413   
C53      C      0.181310050000     0.474040650000     0.929611550000     0.287558   
C54      C      0.168489380000     0.025489570000     0.932056665000    -0.035029   
C55      C      0.176615730000     0.239932030000     0.916934950000    -0.169263   
C56      C      0.150946260000     0.121098145000     0.933990550000    -0.018674   
C57      C      0.194169370000     0.144323550000     0.915039925000    -0.091952   
C58      C      0.443225115000     0.487179000000     0.935890400000    -0.010861   
C59      C      0.346806950000     0.289290520000     0.908813270000     0.040318   
C60      C      0.403254350000     0.276880400000     0.902893335000    -0.05564    
C61      C      0.434752950000     0.312352850000     0.909104600000    -0.022213   
C62      C      0.410243870000     0.361261000000     0.919637700000    -0.002288   
C63      C      0.352845800000     0.372478900000     0.923338450000     0.04875    
C64      C      0.440727850000     0.399617150000     0.924946000000    -0.029967   
C65      C      0.413923830000     0.448740570000     0.931438415000    -0.00872    
C66      C      0.358226030000     0.459157375000     0.933120520000    -0.003521   
C67      C      0.328257500000     0.421631000000     0.929152580000    -0.103575   
C68      C      0.496979775000     0.391426900000     0.924229950000    -0.044746   
C69      C      0.498659075000     0.476708200000     0.934447765000    -0.030308   
N70      N      0.207031610000     0.299883200000     0.577018535000    -0.14488    
N71      N      0.117445075000     0.319648200000     0.781586100000    -0.144153   
N72      N      0.023804365000     0.429626880000     0.928945950000    -0.204004   
N73      N      0.322487600000     0.335785420000     0.919637950000    -0.219796   
O74      O      0.327183050000     0.344396770000     0.812870200000    -0.264399   
O75      O      0.019651650000     0.418804170000     0.535704975000    -0.225054   
O76      O      0.236377670000     0.365670085000     0.832039900000    -0.359336   
O77      O      0.110457055000     0.397530825000     0.516535280000    -0.2446     
O78      O      0.203250365000     0.317528280000     0.902062250000    -0.544835   
O79      O      0.141847270000     0.447892425000     0.946917535000    -0.558925   
O80      O      0.113467960000     0.309975150000     0.938762100000    -0.457002   
O81      O      0.231629700000     0.455445500000     0.910217675000    -0.420179   
Zn0      Zn     0.109512190000     0.891258550000     0.438229550000     1.14122    
Zn1      Zn     0.236730280000     0.873371035000     0.410840480000     1.15732    
H2       H      0.298783050000     0.790114000000     0.103106730000     0.046602   
H3       H      0.029315335000     0.852671385000     0.253873200000     0.084732   
H4       H      0.151368720000     0.877115935000     0.077561450000     0.040267   
H5       H      0.192361830000     0.866148900000     0.272397220000     0.046804   
H6       H      0.475812165000     0.914350700000     0.122992635000     0.041277   
H7       H      0.366751520000     0.821420400000     0.227498800000     0.036967   
H8       H      0.357420550000     0.798924350000     0.153329970000     0.045809   
H9       H      0.477579050000     0.888209015000     0.200552650000     0.034028   
H10      H      0.243585110000     0.797177800000     0.051627410000     0.066422   
H11      H      0.199418320000     0.724558725000     0.089714885000     0.049648   
H12      H      0.173876800000     0.751798250000     0.043268090000     0.052152   
H13      H      0.134810270000     0.765317050000     0.100849540000     0.054984   
H14      H      0.082611540000     0.833431700000     0.306199820000     0.090469   
H15      H      0.133708600000     0.759401530000     0.322914420000     0.052442   
H16      H      0.174259690000     0.754956900000     0.264715880000     0.055951   
H17      H      0.101975570000     0.746279565000     0.279229670000     0.049099   
H18      H      0.234725790000     0.624673105000     0.399557085000     0.054792   
H19      H      0.110389995000     0.640748750000     0.449469850000     0.033937   
H20      H      0.021845875000     0.506013630000     0.437916500000     0.032941   
H21      H      0.423408250000     0.524921955000     0.440533900000     0.014055   
H22      H      0.337599950000     0.996665715000     0.437487150000     0.02922    
H23      H      0.478238015000     0.800782025000     0.404110075000     0.035048   
H24      H      0.422775800000     0.739823925000     0.393516400000     0.042979   
H25      H      0.020336985000     0.855274020000     0.420588200000    -0.005413   
H26      H      0.321637630000     0.762184085000     0.404672535000     0.013779   
H27      H      0.286139725000     0.932487250000     0.429552150000     0.01645    
C28      C      0.211295130000     0.813688900000     0.120271905000     0.064504   
C29      C      0.117719225000     0.834987880000     0.236296775000     0.079771   
C30      C      0.262741750000     0.804356150000     0.129624070000    -0.098498   
C31      C      0.067125350000     0.849846750000     0.226560200000    -0.09088    
C32      C      0.281770150000     0.854098150000     0.301577400000     0.304289   
C33      C      0.064739915000     0.907014800000     0.047143535000     0.279939   
C34      C      0.279323950000     0.844075550000     0.255563320000    -0.08523    
C35      C      0.063914890000     0.895970670000     0.094622700000    -0.088672   
C36      C      0.320726635000     0.811835650000     0.179772950000    -0.076476   
C37      C      0.015605270000     0.883852125000     0.173516675000    -0.028139   
C38      C      0.326177650000     0.825405900000     0.221672475000     0.018449   
C39      C      0.014694995000     0.899502700000     0.129573165000     0.040795   
C40      C      0.227422460000     0.848051400000     0.247474000000    -0.000508   
C41      C      0.113309285000     0.875925150000     0.103831125000    -0.003767   
C42      C      0.220566780000     0.830507220000     0.207489060000    -0.013491   
C43      C      0.114328850000     0.855972100000     0.146435110000    -0.012017   
C44      C      0.268227430000     0.815247475000     0.172155650000     0.048048   
C45      C      0.065388605000     0.863027630000     0.182346790000     0.037811   
C46      C      0.167534530000     0.832456700000     0.200361685000    -0.021382   
C47      C      0.164174185000     0.833550200000     0.154997200000    -0.017557   
C48      C      0.177208380000     0.758211000000     0.077983810000    -0.089265   
C49      C      0.132656040000     0.767333950000     0.287181900000    -0.087119   
C50      C      0.186405065000     0.696305720000     0.415338150000     0.09705    
C51      C      0.158703225000     0.569115230000     0.433677000000    -0.003762   
C52      C      0.163784450000     0.791374475000     0.419362300000     0.369413   
C53      C      0.181310050000     0.974040650000     0.429611550000     0.287558   
C54      C      0.168489380000     0.525489570000     0.432056665000    -0.035029   
C55      C      0.176615730000     0.739932030000     0.416934950000    -0.169263   
C56      C      0.150946260000     0.621098145000     0.433990550000    -0.018674   
C57      C      0.194169370000     0.644323550000     0.415039925000    -0.091952   
C58      C      0.443225115000     0.987179000000     0.435890400000    -0.010861   
C59      C      0.346806950000     0.789290520000     0.408813270000     0.040318   
C60      C      0.403254350000     0.776880400000     0.402893335000    -0.05564    
C61      C      0.434752950000     0.812352850000     0.409104600000    -0.022213   
C62      C      0.410243870000     0.861261000000     0.419637700000    -0.002288   
C63      C      0.352845800000     0.872478900000     0.423338450000     0.04875    
C64      C      0.440727850000     0.899617150000     0.424946000000    -0.029967   
C65      C      0.413923830000     0.948740570000     0.431438415000    -0.00872    
C66      C      0.358226030000     0.959157375000     0.433120520000    -0.003521   
C67      C      0.328257500000     0.921631000000     0.429152580000    -0.103575   
C68      C      0.496979775000     0.891426900000     0.424229950000    -0.044746   
C69      C      0.498659075000     0.976708200000     0.434447765000    -0.030308   
N70      N      0.207031610000     0.799883200000     0.077018535000    -0.14488    
N71      N      0.117445075000     0.819648200000     0.281586100000    -0.144153   
N72      N      0.023804365000     0.929626880000     0.428945950000    -0.204004   
N73      N      0.322487600000     0.835785420000     0.419637950000    -0.219796   
O74      O      0.327183050000     0.844396770000     0.312870200000    -0.264399   
O75      O      0.019651650000     0.918804170000     0.035704975000    -0.225054   
O76      O      0.236377670000     0.865670085000     0.332039900000    -0.359336   
O77      O      0.110457055000     0.897530825000     0.016535280000    -0.2446     
O78      O      0.203250365000     0.817528280000     0.402062250000    -0.544835   
O79      O      0.141847270000     0.947892425000     0.446917535000    -0.558925   
O80      O      0.113467960000     0.809975150000     0.438762100000    -0.457002   
O81      O      0.231629700000     0.955445500000     0.410217675000    -0.420179   
Zn0      Zn     0.109512190000     0.891258550000     0.938229550000     1.14122    
Zn1      Zn     0.236730280000     0.873371035000     0.910840480000     1.15732    
H2       H      0.298783050000     0.790114000000     0.603106730000     0.046602   
H3       H      0.029315335000     0.852671385000     0.753873200000     0.084732   
H4       H      0.151368720000     0.877115935000     0.577561450000     0.040267   
H5       H      0.192361830000     0.866148900000     0.772397220000     0.046804   
H6       H      0.475812165000     0.914350700000     0.622992635000     0.041277   
H7       H      0.366751520000     0.821420400000     0.727498800000     0.036967   
H8       H      0.357420550000     0.798924350000     0.653329970000     0.045809   
H9       H      0.477579050000     0.888209015000     0.700552650000     0.034028   
H10      H      0.243585110000     0.797177800000     0.551627410000     0.066422   
H11      H      0.199418320000     0.724558725000     0.589714885000     0.049648   
H12      H      0.173876800000     0.751798250000     0.543268090000     0.052152   
H13      H      0.134810270000     0.765317050000     0.600849540000     0.054984   
H14      H      0.082611540000     0.833431700000     0.806199820000     0.090469   
H15      H      0.133708600000     0.759401530000     0.822914420000     0.052442   
H16      H      0.174259690000     0.754956900000     0.764715880000     0.055951   
H17      H      0.101975570000     0.746279565000     0.779229670000     0.049099   
H18      H      0.234725790000     0.624673105000     0.899557085000     0.054792   
H19      H      0.110389995000     0.640748750000     0.949469850000     0.033937   
H20      H      0.021845875000     0.506013630000     0.937916500000     0.032941   
H21      H      0.423408250000     0.524921955000     0.940533900000     0.014055   
H22      H      0.337599950000     0.996665715000     0.937487150000     0.02922    
H23      H      0.478238015000     0.800782025000     0.904110075000     0.035048   
H24      H      0.422775800000     0.739823925000     0.893516400000     0.042979   
H25      H      0.020336985000     0.855274020000     0.920588200000    -0.005413   
H26      H      0.321637630000     0.762184085000     0.904672535000     0.013779   
H27      H      0.286139725000     0.932487250000     0.929552150000     0.01645    
C28      C      0.211295130000     0.813688900000     0.620271905000     0.064504   
C29      C      0.117719225000     0.834987880000     0.736296775000     0.079771   
C30      C      0.262741750000     0.804356150000     0.629624070000    -0.098498   
C31      C      0.067125350000     0.849846750000     0.726560200000    -0.09088    
C32      C      0.281770150000     0.854098150000     0.801577400000     0.304289   
C33      C      0.064739915000     0.907014800000     0.547143535000     0.279939   
C34      C      0.279323950000     0.844075550000     0.755563320000    -0.08523    
C35      C      0.063914890000     0.895970670000     0.594622700000    -0.088672   
C36      C      0.320726635000     0.811835650000     0.679772950000    -0.076476   
C37      C      0.015605270000     0.883852125000     0.673516675000    -0.028139   
C38      C      0.326177650000     0.825405900000     0.721672475000     0.018449   
C39      C      0.014694995000     0.899502700000     0.629573165000     0.040795   
C40      C      0.227422460000     0.848051400000     0.747474000000    -0.000508   
C41      C      0.113309285000     0.875925150000     0.603831125000    -0.003767   
C42      C      0.220566780000     0.830507220000     0.707489060000    -0.013491   
C43      C      0.114328850000     0.855972100000     0.646435110000    -0.012017   
C44      C      0.268227430000     0.815247475000     0.672155650000     0.048048   
C45      C      0.065388605000     0.863027630000     0.682346790000     0.037811   
C46      C      0.167534530000     0.832456700000     0.700361685000    -0.021382   
C47      C      0.164174185000     0.833550200000     0.654997200000    -0.017557   
C48      C      0.177208380000     0.758211000000     0.577983810000    -0.089265   
C49      C      0.132656040000     0.767333950000     0.787181900000    -0.087119   
C50      C      0.186405065000     0.696305720000     0.915338150000     0.09705    
C51      C      0.158703225000     0.569115230000     0.933677000000    -0.003762   
C52      C      0.163784450000     0.791374475000     0.919362300000     0.369413   
C53      C      0.181310050000     0.974040650000     0.929611550000     0.287558   
C54      C      0.168489380000     0.525489570000     0.932056665000    -0.035029   
C55      C      0.176615730000     0.739932030000     0.916934950000    -0.169263   
C56      C      0.150946260000     0.621098145000     0.933990550000    -0.018674   
C57      C      0.194169370000     0.644323550000     0.915039925000    -0.091952   
C58      C      0.443225115000     0.987179000000     0.935890400000    -0.010861   
C59      C      0.346806950000     0.789290520000     0.908813270000     0.040318   
C60      C      0.403254350000     0.776880400000     0.902893335000    -0.05564    
C61      C      0.434752950000     0.812352850000     0.909104600000    -0.022213   
C62      C      0.410243870000     0.861261000000     0.919637700000    -0.002288   
C63      C      0.352845800000     0.872478900000     0.923338450000     0.04875    
C64      C      0.440727850000     0.899617150000     0.924946000000    -0.029967   
C65      C      0.413923830000     0.948740570000     0.931438415000    -0.00872    
C66      C      0.358226030000     0.959157375000     0.933120520000    -0.003521   
C67      C      0.328257500000     0.921631000000     0.929152580000    -0.103575   
C68      C      0.496979775000     0.891426900000     0.924229950000    -0.044746   
C69      C      0.498659075000     0.976708200000     0.934447765000    -0.030308   
N70      N      0.207031610000     0.799883200000     0.577018535000    -0.14488    
N71      N      0.117445075000     0.819648200000     0.781586100000    -0.144153   
N72      N      0.023804365000     0.929626880000     0.928945950000    -0.204004   
N73      N      0.322487600000     0.835785420000     0.919637950000    -0.219796   
O74      O      0.327183050000     0.844396770000     0.812870200000    -0.264399   
O75      O      0.019651650000     0.918804170000     0.535704975000    -0.225054   
O76      O      0.236377670000     0.865670085000     0.832039900000    -0.359336   
O77      O      0.110457055000     0.897530825000     0.516535280000    -0.2446     
O78      O      0.203250365000     0.817528280000     0.902062250000    -0.544835   
O79      O      0.141847270000     0.947892425000     0.946917535000    -0.558925   
O80      O      0.113467960000     0.809975150000     0.938762100000    -0.457002   
O81      O      0.231629700000     0.955445500000     0.910217675000    -0.420179   
Zn0      Zn     0.609512190000     0.391258550000     0.438229550000     1.14122    
Zn1      Zn     0.736730280000     0.373371035000     0.410840480000     1.15732    
H2       H      0.798783050000     0.290114000000     0.103106730000     0.046602   
H3       H      0.529315335000     0.352671385000     0.253873200000     0.084732   
H4       H      0.651368720000     0.377115935000     0.077561450000     0.040267   
H5       H      0.692361830000     0.366148900000     0.272397220000     0.046804   
H6       H      0.975812165000     0.414350700000     0.122992635000     0.041277   
H7       H      0.866751520000     0.321420400000     0.227498800000     0.036967   
H8       H      0.857420550000     0.298924350000     0.153329970000     0.045809   
H9       H      0.977579050000     0.388209015000     0.200552650000     0.034028   
H10      H      0.743585110000     0.297177800000     0.051627410000     0.066422   
H11      H      0.699418320000     0.224558725000     0.089714885000     0.049648   
H12      H      0.673876800000     0.251798250000     0.043268090000     0.052152   
H13      H      0.634810270000     0.265317050000     0.100849540000     0.054984   
H14      H      0.582611540000     0.333431700000     0.306199820000     0.090469   
H15      H      0.633708600000     0.259401530000     0.322914420000     0.052442   
H16      H      0.674259690000     0.254956900000     0.264715880000     0.055951   
H17      H      0.601975570000     0.246279565000     0.279229670000     0.049099   
H18      H      0.734725790000     0.124673105000     0.399557085000     0.054792   
H19      H      0.610389995000     0.140748750000     0.449469850000     0.033937   
H20      H      0.521845875000     0.006013630000     0.437916500000     0.032941   
H21      H      0.923408250000     0.024921955000     0.440533900000     0.014055   
H22      H      0.837599950000     0.496665715000     0.437487150000     0.02922    
H23      H      0.978238015000     0.300782025000     0.404110075000     0.035048   
H24      H      0.922775800000     0.239823925000     0.393516400000     0.042979   
H25      H      0.520336985000     0.355274020000     0.420588200000    -0.005413   
H26      H      0.821637630000     0.262184085000     0.404672535000     0.013779   
H27      H      0.786139725000     0.432487250000     0.429552150000     0.01645    
C28      C      0.711295130000     0.313688900000     0.120271905000     0.064504   
C29      C      0.617719225000     0.334987880000     0.236296775000     0.079771   
C30      C      0.762741750000     0.304356150000     0.129624070000    -0.098498   
C31      C      0.567125350000     0.349846750000     0.226560200000    -0.09088    
C32      C      0.781770150000     0.354098150000     0.301577400000     0.304289   
C33      C      0.564739915000     0.407014800000     0.047143535000     0.279939   
C34      C      0.779323950000     0.344075550000     0.255563320000    -0.08523    
C35      C      0.563914890000     0.395970670000     0.094622700000    -0.088672   
C36      C      0.820726635000     0.311835650000     0.179772950000    -0.076476   
C37      C      0.515605270000     0.383852125000     0.173516675000    -0.028139   
C38      C      0.826177650000     0.325405900000     0.221672475000     0.018449   
C39      C      0.514694995000     0.399502700000     0.129573165000     0.040795   
C40      C      0.727422460000     0.348051400000     0.247474000000    -0.000508   
C41      C      0.613309285000     0.375925150000     0.103831125000    -0.003767   
C42      C      0.720566780000     0.330507220000     0.207489060000    -0.013491   
C43      C      0.614328850000     0.355972100000     0.146435110000    -0.012017   
C44      C      0.768227430000     0.315247475000     0.172155650000     0.048048   
C45      C      0.565388605000     0.363027630000     0.182346790000     0.037811   
C46      C      0.667534530000     0.332456700000     0.200361685000    -0.021382   
C47      C      0.664174185000     0.333550200000     0.154997200000    -0.017557   
C48      C      0.677208380000     0.258211000000     0.077983810000    -0.089265   
C49      C      0.632656040000     0.267333950000     0.287181900000    -0.087119   
C50      C      0.686405065000     0.196305720000     0.415338150000     0.09705    
C51      C      0.658703225000     0.069115230000     0.433677000000    -0.003762   
C52      C      0.663784450000     0.291374475000     0.419362300000     0.369413   
C53      C      0.681310050000     0.474040650000     0.429611550000     0.287558   
C54      C      0.668489380000     0.025489570000     0.432056665000    -0.035029   
C55      C      0.676615730000     0.239932030000     0.416934950000    -0.169263   
C56      C      0.650946260000     0.121098145000     0.433990550000    -0.018674   
C57      C      0.694169370000     0.144323550000     0.415039925000    -0.091952   
C58      C      0.943225115000     0.487179000000     0.435890400000    -0.010861   
C59      C      0.846806950000     0.289290520000     0.408813270000     0.040318   
C60      C      0.903254350000     0.276880400000     0.402893335000    -0.05564    
C61      C      0.934752950000     0.312352850000     0.409104600000    -0.022213   
C62      C      0.910243870000     0.361261000000     0.419637700000    -0.002288   
C63      C      0.852845800000     0.372478900000     0.423338450000     0.04875    
C64      C      0.940727850000     0.399617150000     0.424946000000    -0.029967   
C65      C      0.913923830000     0.448740570000     0.431438415000    -0.00872    
C66      C      0.858226030000     0.459157375000     0.433120520000    -0.003521   
C67      C      0.828257500000     0.421631000000     0.429152580000    -0.103575   
C68      C      0.996979775000     0.391426900000     0.424229950000    -0.044746   
C69      C      0.998659075000     0.476708200000     0.434447765000    -0.030308   
N70      N      0.707031610000     0.299883200000     0.077018535000    -0.14488    
N71      N      0.617445075000     0.319648200000     0.281586100000    -0.144153   
N72      N      0.523804365000     0.429626880000     0.428945950000    -0.204004   
N73      N      0.822487600000     0.335785420000     0.419637950000    -0.219796   
O74      O      0.827183050000     0.344396770000     0.312870200000    -0.264399   
O75      O      0.519651650000     0.418804170000     0.035704975000    -0.225054   
O76      O      0.736377670000     0.365670085000     0.332039900000    -0.359336   
O77      O      0.610457055000     0.397530825000     0.016535280000    -0.2446     
O78      O      0.703250365000     0.317528280000     0.402062250000    -0.544835   
O79      O      0.641847270000     0.447892425000     0.446917535000    -0.558925   
O80      O      0.613467960000     0.309975150000     0.438762100000    -0.457002   
O81      O      0.731629700000     0.455445500000     0.410217675000    -0.420179   
Zn0      Zn     0.609512190000     0.391258550000     0.938229550000     1.14122    
Zn1      Zn     0.736730280000     0.373371035000     0.910840480000     1.15732    
H2       H      0.798783050000     0.290114000000     0.603106730000     0.046602   
H3       H      0.529315335000     0.352671385000     0.753873200000     0.084732   
H4       H      0.651368720000     0.377115935000     0.577561450000     0.040267   
H5       H      0.692361830000     0.366148900000     0.772397220000     0.046804   
H6       H      0.975812165000     0.414350700000     0.622992635000     0.041277   
H7       H      0.866751520000     0.321420400000     0.727498800000     0.036967   
H8       H      0.857420550000     0.298924350000     0.653329970000     0.045809   
H9       H      0.977579050000     0.388209015000     0.700552650000     0.034028   
H10      H      0.743585110000     0.297177800000     0.551627410000     0.066422   
H11      H      0.699418320000     0.224558725000     0.589714885000     0.049648   
H12      H      0.673876800000     0.251798250000     0.543268090000     0.052152   
H13      H      0.634810270000     0.265317050000     0.600849540000     0.054984   
H14      H      0.582611540000     0.333431700000     0.806199820000     0.090469   
H15      H      0.633708600000     0.259401530000     0.822914420000     0.052442   
H16      H      0.674259690000     0.254956900000     0.764715880000     0.055951   
H17      H      0.601975570000     0.246279565000     0.779229670000     0.049099   
H18      H      0.734725790000     0.124673105000     0.899557085000     0.054792   
H19      H      0.610389995000     0.140748750000     0.949469850000     0.033937   
H20      H      0.521845875000     0.006013630000     0.937916500000     0.032941   
H21      H      0.923408250000     0.024921955000     0.940533900000     0.014055   
H22      H      0.837599950000     0.496665715000     0.937487150000     0.02922    
H23      H      0.978238015000     0.300782025000     0.904110075000     0.035048   
H24      H      0.922775800000     0.239823925000     0.893516400000     0.042979   
H25      H      0.520336985000     0.355274020000     0.920588200000    -0.005413   
H26      H      0.821637630000     0.262184085000     0.904672535000     0.013779   
H27      H      0.786139725000     0.432487250000     0.929552150000     0.01645    
C28      C      0.711295130000     0.313688900000     0.620271905000     0.064504   
C29      C      0.617719225000     0.334987880000     0.736296775000     0.079771   
C30      C      0.762741750000     0.304356150000     0.629624070000    -0.098498   
C31      C      0.567125350000     0.349846750000     0.726560200000    -0.09088    
C32      C      0.781770150000     0.354098150000     0.801577400000     0.304289   
C33      C      0.564739915000     0.407014800000     0.547143535000     0.279939   
C34      C      0.779323950000     0.344075550000     0.755563320000    -0.08523    
C35      C      0.563914890000     0.395970670000     0.594622700000    -0.088672   
C36      C      0.820726635000     0.311835650000     0.679772950000    -0.076476   
C37      C      0.515605270000     0.383852125000     0.673516675000    -0.028139   
C38      C      0.826177650000     0.325405900000     0.721672475000     0.018449   
C39      C      0.514694995000     0.399502700000     0.629573165000     0.040795   
C40      C      0.727422460000     0.348051400000     0.747474000000    -0.000508   
C41      C      0.613309285000     0.375925150000     0.603831125000    -0.003767   
C42      C      0.720566780000     0.330507220000     0.707489060000    -0.013491   
C43      C      0.614328850000     0.355972100000     0.646435110000    -0.012017   
C44      C      0.768227430000     0.315247475000     0.672155650000     0.048048   
C45      C      0.565388605000     0.363027630000     0.682346790000     0.037811   
C46      C      0.667534530000     0.332456700000     0.700361685000    -0.021382   
C47      C      0.664174185000     0.333550200000     0.654997200000    -0.017557   
C48      C      0.677208380000     0.258211000000     0.577983810000    -0.089265   
C49      C      0.632656040000     0.267333950000     0.787181900000    -0.087119   
C50      C      0.686405065000     0.196305720000     0.915338150000     0.09705    
C51      C      0.658703225000     0.069115230000     0.933677000000    -0.003762   
C52      C      0.663784450000     0.291374475000     0.919362300000     0.369413   
C53      C      0.681310050000     0.474040650000     0.929611550000     0.287558   
C54      C      0.668489380000     0.025489570000     0.932056665000    -0.035029   
C55      C      0.676615730000     0.239932030000     0.916934950000    -0.169263   
C56      C      0.650946260000     0.121098145000     0.933990550000    -0.018674   
C57      C      0.694169370000     0.144323550000     0.915039925000    -0.091952   
C58      C      0.943225115000     0.487179000000     0.935890400000    -0.010861   
C59      C      0.846806950000     0.289290520000     0.908813270000     0.040318   
C60      C      0.903254350000     0.276880400000     0.902893335000    -0.05564    
C61      C      0.934752950000     0.312352850000     0.909104600000    -0.022213   
C62      C      0.910243870000     0.361261000000     0.919637700000    -0.002288   
C63      C      0.852845800000     0.372478900000     0.923338450000     0.04875    
C64      C      0.940727850000     0.399617150000     0.924946000000    -0.029967   
C65      C      0.913923830000     0.448740570000     0.931438415000    -0.00872    
C66      C      0.858226030000     0.459157375000     0.933120520000    -0.003521   
C67      C      0.828257500000     0.421631000000     0.929152580000    -0.103575   
C68      C      0.996979775000     0.391426900000     0.924229950000    -0.044746   
C69      C      0.998659075000     0.476708200000     0.934447765000    -0.030308   
N70      N      0.707031610000     0.299883200000     0.577018535000    -0.14488    
N71      N      0.617445075000     0.319648200000     0.781586100000    -0.144153   
N72      N      0.523804365000     0.429626880000     0.928945950000    -0.204004   
N73      N      0.822487600000     0.335785420000     0.919637950000    -0.219796   
O74      O      0.827183050000     0.344396770000     0.812870200000    -0.264399   
O75      O      0.519651650000     0.418804170000     0.535704975000    -0.225054   
O76      O      0.736377670000     0.365670085000     0.832039900000    -0.359336   
O77      O      0.610457055000     0.397530825000     0.516535280000    -0.2446     
O78      O      0.703250365000     0.317528280000     0.902062250000    -0.544835   
O79      O      0.641847270000     0.447892425000     0.946917535000    -0.558925   
O80      O      0.613467960000     0.309975150000     0.938762100000    -0.457002   
O81      O      0.731629700000     0.455445500000     0.910217675000    -0.420179   
Zn0      Zn     0.609512190000     0.891258550000     0.438229550000     1.14122    
Zn1      Zn     0.736730280000     0.873371035000     0.410840480000     1.15732    
H2       H      0.798783050000     0.790114000000     0.103106730000     0.046602   
H3       H      0.529315335000     0.852671385000     0.253873200000     0.084732   
H4       H      0.651368720000     0.877115935000     0.077561450000     0.040267   
H5       H      0.692361830000     0.866148900000     0.272397220000     0.046804   
H6       H      0.975812165000     0.914350700000     0.122992635000     0.041277   
H7       H      0.866751520000     0.821420400000     0.227498800000     0.036967   
H8       H      0.857420550000     0.798924350000     0.153329970000     0.045809   
H9       H      0.977579050000     0.888209015000     0.200552650000     0.034028   
H10      H      0.743585110000     0.797177800000     0.051627410000     0.066422   
H11      H      0.699418320000     0.724558725000     0.089714885000     0.049648   
H12      H      0.673876800000     0.751798250000     0.043268090000     0.052152   
H13      H      0.634810270000     0.765317050000     0.100849540000     0.054984   
H14      H      0.582611540000     0.833431700000     0.306199820000     0.090469   
H15      H      0.633708600000     0.759401530000     0.322914420000     0.052442   
H16      H      0.674259690000     0.754956900000     0.264715880000     0.055951   
H17      H      0.601975570000     0.746279565000     0.279229670000     0.049099   
H18      H      0.734725790000     0.624673105000     0.399557085000     0.054792   
H19      H      0.610389995000     0.640748750000     0.449469850000     0.033937   
H20      H      0.521845875000     0.506013630000     0.437916500000     0.032941   
H21      H      0.923408250000     0.524921955000     0.440533900000     0.014055   
H22      H      0.837599950000     0.996665715000     0.437487150000     0.02922    
H23      H      0.978238015000     0.800782025000     0.404110075000     0.035048   
H24      H      0.922775800000     0.739823925000     0.393516400000     0.042979   
H25      H      0.520336985000     0.855274020000     0.420588200000    -0.005413   
H26      H      0.821637630000     0.762184085000     0.404672535000     0.013779   
H27      H      0.786139725000     0.932487250000     0.429552150000     0.01645    
C28      C      0.711295130000     0.813688900000     0.120271905000     0.064504   
C29      C      0.617719225000     0.834987880000     0.236296775000     0.079771   
C30      C      0.762741750000     0.804356150000     0.129624070000    -0.098498   
C31      C      0.567125350000     0.849846750000     0.226560200000    -0.09088    
C32      C      0.781770150000     0.854098150000     0.301577400000     0.304289   
C33      C      0.564739915000     0.907014800000     0.047143535000     0.279939   
C34      C      0.779323950000     0.844075550000     0.255563320000    -0.08523    
C35      C      0.563914890000     0.895970670000     0.094622700000    -0.088672   
C36      C      0.820726635000     0.811835650000     0.179772950000    -0.076476   
C37      C      0.515605270000     0.883852125000     0.173516675000    -0.028139   
C38      C      0.826177650000     0.825405900000     0.221672475000     0.018449   
C39      C      0.514694995000     0.899502700000     0.129573165000     0.040795   
C40      C      0.727422460000     0.848051400000     0.247474000000    -0.000508   
C41      C      0.613309285000     0.875925150000     0.103831125000    -0.003767   
C42      C      0.720566780000     0.830507220000     0.207489060000    -0.013491   
C43      C      0.614328850000     0.855972100000     0.146435110000    -0.012017   
C44      C      0.768227430000     0.815247475000     0.172155650000     0.048048   
C45      C      0.565388605000     0.863027630000     0.182346790000     0.037811   
C46      C      0.667534530000     0.832456700000     0.200361685000    -0.021382   
C47      C      0.664174185000     0.833550200000     0.154997200000    -0.017557   
C48      C      0.677208380000     0.758211000000     0.077983810000    -0.089265   
C49      C      0.632656040000     0.767333950000     0.287181900000    -0.087119   
C50      C      0.686405065000     0.696305720000     0.415338150000     0.09705    
C51      C      0.658703225000     0.569115230000     0.433677000000    -0.003762   
C52      C      0.663784450000     0.791374475000     0.419362300000     0.369413   
C53      C      0.681310050000     0.974040650000     0.429611550000     0.287558   
C54      C      0.668489380000     0.525489570000     0.432056665000    -0.035029   
C55      C      0.676615730000     0.739932030000     0.416934950000    -0.169263   
C56      C      0.650946260000     0.621098145000     0.433990550000    -0.018674   
C57      C      0.694169370000     0.644323550000     0.415039925000    -0.091952   
C58      C      0.943225115000     0.987179000000     0.435890400000    -0.010861   
C59      C      0.846806950000     0.789290520000     0.408813270000     0.040318   
C60      C      0.903254350000     0.776880400000     0.402893335000    -0.05564    
C61      C      0.934752950000     0.812352850000     0.409104600000    -0.022213   
C62      C      0.910243870000     0.861261000000     0.419637700000    -0.002288   
C63      C      0.852845800000     0.872478900000     0.423338450000     0.04875    
C64      C      0.940727850000     0.899617150000     0.424946000000    -0.029967   
C65      C      0.913923830000     0.948740570000     0.431438415000    -0.00872    
C66      C      0.858226030000     0.959157375000     0.433120520000    -0.003521   
C67      C      0.828257500000     0.921631000000     0.429152580000    -0.103575   
C68      C      0.996979775000     0.891426900000     0.424229950000    -0.044746   
C69      C      0.998659075000     0.976708200000     0.434447765000    -0.030308   
N70      N      0.707031610000     0.799883200000     0.077018535000    -0.14488    
N71      N      0.617445075000     0.819648200000     0.281586100000    -0.144153   
N72      N      0.523804365000     0.929626880000     0.428945950000    -0.204004   
N73      N      0.822487600000     0.835785420000     0.419637950000    -0.219796   
O74      O      0.827183050000     0.844396770000     0.312870200000    -0.264399   
O75      O      0.519651650000     0.918804170000     0.035704975000    -0.225054   
O76      O      0.736377670000     0.865670085000     0.332039900000    -0.359336   
O77      O      0.610457055000     0.897530825000     0.016535280000    -0.2446     
O78      O      0.703250365000     0.817528280000     0.402062250000    -0.544835   
O79      O      0.641847270000     0.947892425000     0.446917535000    -0.558925   
O80      O      0.613467960000     0.809975150000     0.438762100000    -0.457002   
O81      O      0.731629700000     0.955445500000     0.410217675000    -0.420179   
Zn0      Zn     0.609512190000     0.891258550000     0.938229550000     1.14122    
Zn1      Zn     0.736730280000     0.873371035000     0.910840480000     1.15732    
H2       H      0.798783050000     0.790114000000     0.603106730000     0.046602   
H3       H      0.529315335000     0.852671385000     0.753873200000     0.084732   
H4       H      0.651368720000     0.877115935000     0.577561450000     0.040267   
H5       H      0.692361830000     0.866148900000     0.772397220000     0.046804   
H6       H      0.975812165000     0.914350700000     0.622992635000     0.041277   
H7       H      0.866751520000     0.821420400000     0.727498800000     0.036967   
H8       H      0.857420550000     0.798924350000     0.653329970000     0.045809   
H9       H      0.977579050000     0.888209015000     0.700552650000     0.034028   
H10      H      0.743585110000     0.797177800000     0.551627410000     0.066422   
H11      H      0.699418320000     0.724558725000     0.589714885000     0.049648   
H12      H      0.673876800000     0.751798250000     0.543268090000     0.052152   
H13      H      0.634810270000     0.765317050000     0.600849540000     0.054984   
H14      H      0.582611540000     0.833431700000     0.806199820000     0.090469   
H15      H      0.633708600000     0.759401530000     0.822914420000     0.052442   
H16      H      0.674259690000     0.754956900000     0.764715880000     0.055951   
H17      H      0.601975570000     0.746279565000     0.779229670000     0.049099   
H18      H      0.734725790000     0.624673105000     0.899557085000     0.054792   
H19      H      0.610389995000     0.640748750000     0.949469850000     0.033937   
H20      H      0.521845875000     0.506013630000     0.937916500000     0.032941   
H21      H      0.923408250000     0.524921955000     0.940533900000     0.014055   
H22      H      0.837599950000     0.996665715000     0.937487150000     0.02922    
H23      H      0.978238015000     0.800782025000     0.904110075000     0.035048   
H24      H      0.922775800000     0.739823925000     0.893516400000     0.042979   
H25      H      0.520336985000     0.855274020000     0.920588200000    -0.005413   
H26      H      0.821637630000     0.762184085000     0.904672535000     0.013779   
H27      H      0.786139725000     0.932487250000     0.929552150000     0.01645    
C28      C      0.711295130000     0.813688900000     0.620271905000     0.064504   
C29      C      0.617719225000     0.834987880000     0.736296775000     0.079771   
C30      C      0.762741750000     0.804356150000     0.629624070000    -0.098498   
C31      C      0.567125350000     0.849846750000     0.726560200000    -0.09088    
C32      C      0.781770150000     0.854098150000     0.801577400000     0.304289   
C33      C      0.564739915000     0.907014800000     0.547143535000     0.279939   
C34      C      0.779323950000     0.844075550000     0.755563320000    -0.08523    
C35      C      0.563914890000     0.895970670000     0.594622700000    -0.088672   
C36      C      0.820726635000     0.811835650000     0.679772950000    -0.076476   
C37      C      0.515605270000     0.883852125000     0.673516675000    -0.028139   
C38      C      0.826177650000     0.825405900000     0.721672475000     0.018449   
C39      C      0.514694995000     0.899502700000     0.629573165000     0.040795   
C40      C      0.727422460000     0.848051400000     0.747474000000    -0.000508   
C41      C      0.613309285000     0.875925150000     0.603831125000    -0.003767   
C42      C      0.720566780000     0.830507220000     0.707489060000    -0.013491   
C43      C      0.614328850000     0.855972100000     0.646435110000    -0.012017   
C44      C      0.768227430000     0.815247475000     0.672155650000     0.048048   
C45      C      0.565388605000     0.863027630000     0.682346790000     0.037811   
C46      C      0.667534530000     0.832456700000     0.700361685000    -0.021382   
C47      C      0.664174185000     0.833550200000     0.654997200000    -0.017557   
C48      C      0.677208380000     0.758211000000     0.577983810000    -0.089265   
C49      C      0.632656040000     0.767333950000     0.787181900000    -0.087119   
C50      C      0.686405065000     0.696305720000     0.915338150000     0.09705    
C51      C      0.658703225000     0.569115230000     0.933677000000    -0.003762   
C52      C      0.663784450000     0.791374475000     0.919362300000     0.369413   
C53      C      0.681310050000     0.974040650000     0.929611550000     0.287558   
C54      C      0.668489380000     0.525489570000     0.932056665000    -0.035029   
C55      C      0.676615730000     0.739932030000     0.916934950000    -0.169263   
C56      C      0.650946260000     0.621098145000     0.933990550000    -0.018674   
C57      C      0.694169370000     0.644323550000     0.915039925000    -0.091952   
C58      C      0.943225115000     0.987179000000     0.935890400000    -0.010861   
C59      C      0.846806950000     0.789290520000     0.908813270000     0.040318   
C60      C      0.903254350000     0.776880400000     0.902893335000    -0.05564    
C61      C      0.934752950000     0.812352850000     0.909104600000    -0.022213   
C62      C      0.910243870000     0.861261000000     0.919637700000    -0.002288   
C63      C      0.852845800000     0.872478900000     0.923338450000     0.04875    
C64      C      0.940727850000     0.899617150000     0.924946000000    -0.029967   
C65      C      0.913923830000     0.948740570000     0.931438415000    -0.00872    
C66      C      0.858226030000     0.959157375000     0.933120520000    -0.003521   
C67      C      0.828257500000     0.921631000000     0.929152580000    -0.103575   
C68      C      0.996979775000     0.891426900000     0.924229950000    -0.044746   
C69      C      0.998659075000     0.976708200000     0.934447765000    -0.030308   
N70      N      0.707031610000     0.799883200000     0.577018535000    -0.14488    
N71      N      0.617445075000     0.819648200000     0.781586100000    -0.144153   
N72      N      0.523804365000     0.929626880000     0.928945950000    -0.204004   
N73      N      0.822487600000     0.835785420000     0.919637950000    -0.219796   
O74      O      0.827183050000     0.844396770000     0.812870200000    -0.264399   
O75      O      0.519651650000     0.918804170000     0.535704975000    -0.225054   
O76      O      0.736377670000     0.865670085000     0.832039900000    -0.359336   
O77      O      0.610457055000     0.897530825000     0.516535280000    -0.2446     
O78      O      0.703250365000     0.817528280000     0.902062250000    -0.544835   
O79      O      0.641847270000     0.947892425000     0.946917535000    -0.558925   
O80      O      0.613467960000     0.809975150000     0.938762100000    -0.457002   
O81      O      0.731629700000     0.955445500000     0.910217675000    -0.420179   


