data_sample_3_relaxed_charged

_audit_creation_method RASPA-1.0
_audit_creation_date 2026-2-5
_audit_author_name ''

_cell_length_a    36.6239
_cell_length_b    26.1938
_cell_length_c    44.0744
_cell_angle_alpha 91.1862
_cell_angle_beta  94.9352
_cell_angle_gamma 82.0816
_cell_volume      41721.4

_symmetry_cell_setting          triclinic
_symmetry_space_group_name_Hall 'P 1'
_symmetry_space_group_name_H-M  'P 1'
_symmetry_Int_Tables_number     1

_symmetry_equiv_pos_as_xyz 'x,y,z'

loop_
_atom_site_label
_atom_site_type_symbol
_atom_site_fract_x
_atom_site_fract_y
_atom_site_fract_z
_atom_site_charge
Zn0      Zn     0.052926146667     0.471882250000     0.491860270000     0.947316   
Zn1      Zn     0.118162920000     0.031395510000     0.485462450000     0.93162    
H2       H      0.089258766667     0.097734565000     0.297213880000     0.060725   
H3       H      0.082153833333     0.407536800000     0.177881050000     0.061077   
H4       H      0.110578120000     0.129490510000     0.251345400000     0.062265   
H5       H      0.060834436667     0.375780880000     0.223749565000     0.061067   
H6       H      0.203832346667     0.116094150000     0.119778650000     0.118037   
H7       H      0.300910866667     0.389187250000     0.355312500000     0.085759   
H8       H      0.102353866667     0.088189745000     0.068903000000     0.017794   
H9       H      0.069058740000     0.417081625000     0.406191950000     0.006696   
H10      H      0.080556170000     0.056678555000     0.115222855000     0.04616    
H11      H      0.090856443333     0.448592800000     0.359872050000     0.04496    
H12      H      0.251349533333     0.400926900000     0.470501400000     0.142582   
H13      H      0.253029783333     0.103674890000     0.005388440000     0.077027   
H14      H      0.004426083333     0.408758880000     0.497065800000     0.071973   
H15      H      0.166463413333     0.095804450000     0.478639500000     0.01933    
H16      H      0.013877353333     0.087737150000     0.002623020000    -0.116887   
H17      H      0.157056760000     0.417043100000     0.473262370000     0.093531   
H18      H      0.161779890000     0.241101830000     0.489608400000     0.057385   
H19      H      0.008035230000     0.264764850000     0.484929235000     0.10632    
H20      H      0.098159550000     0.120404500000     0.008950470000    -0.002704   
H21      H      0.071536533333     0.385538350000     0.465537725000    -0.074213   
H22      H      0.128847380000     0.326795150000     0.475084650000     0.038003   
H23      H      0.040907023333     0.179077400000     0.499233485000     0.049725   
C24      C      0.003961850000     0.379442215000     0.412073200000     0.107906   
C25      C      0.167443500000     0.125832380000     0.063026400000     0.241499   
C26      C      0.056554920000     0.426132200000     0.278071350000     0.175602   
C27      C      0.114858816667     0.079140490000     0.197024540000     0.189662   
C28      C      0.065138140000     0.005373370000     0.303660450000     0.133763   
C29      C      0.106274466667     0.499897950000     0.171434475000     0.179167   
C30      C      0.078159670000     0.024237970000     0.277454250000    -0.012662   
C31      C      0.093242973333     0.481046600000     0.197641625000    -0.017001   
C32      C      0.079471216667     0.493377985000     0.250928350000     0.030972   
C33      C      0.091941406667     0.011893350000     0.224166585000     0.030287   
C34      C      0.068368163333     0.444042350000     0.251105100000    -0.045414   
C35      C      0.103044433333     0.061228970000     0.223989850000    -0.045562   
C36      C      0.089663050000     0.073275170000     0.277096550000    -0.023089   
C37      C      0.081749563333     0.431996165000     0.197998375000    -0.019848   
C38      C      0.101924490000     0.091542780000     0.250704850000    -0.002639   
C39      C      0.069488113333     0.413728550000     0.224390060000    -0.005682   
C40      C      0.164907126667     0.083781050000     0.144776075000     0.320696   
C41      C      0.006502783333     0.421500350000     0.330315050000     0.105355   
C42      C      0.176888366667     0.103164135000     0.118508025000    -0.124561   
C43      C      0.327857566667     0.402107250000     0.356586900000     0.000278   
C44      C      0.154717300000     0.104921355000     0.090764695000    -0.001327   
C45      C      0.016695280000     0.400350000000     0.384330200000     0.046875   
C46      C      0.120134966667     0.087113400000     0.089896925000    -0.030958   
C47      C      0.051277616667     0.418157950000     0.385198000000    -0.039066   
C48      C      0.107676993333     0.069018365000     0.116331295000    -0.02305    
C49      C      0.063735610000     0.436253000000     0.358763650000    -0.039894   
C50      C      0.129867823333     0.067101875000     0.144087400000    -0.00636    
C51      C      0.041542103333     0.438179500000     0.331003750000     0.059493   
C52      C      0.238868813333     0.439838380000     0.475388300000    -0.25415    
C53      C      0.265510733333     0.064784900000     0.000433205000    -0.010604   
C54      C      0.200168510000     0.450672715000     0.473041750000     0.247142   
C55      C      0.304204033333     0.053930710000     0.002865195000     0.053572   
C56      C      0.204130833333     0.037904160000     0.487231165000    -0.024849   
C57      C      0.300265053333     0.466782700000     0.488423230000     0.038496   
C58      C      0.243393933333     0.026930355000     0.491063300000     0.196808   
C59      C      0.260995166667     0.477722600000     0.484666975000     0.276374   
C60      C      0.169201613333     0.138015835000     0.004200340000     0.234946   
C61      C      0.000547313333     0.367954880000     0.470774680000     0.19001    
C62      C      0.134706033333     0.176113770000     0.000100015000    -0.020765   
C63      C      0.035062923333     0.329843900000     0.474571900000    -0.027904   
C64      C      0.102779686667     0.312675650000     0.477381675000    -0.079305   
C65      C      0.066988456667     0.193206950000     0.497000700000    -0.102323   
C66      C      0.069765480000     0.346274750000     0.471862150000    -0.004778   
C67      C      0.099978456667     0.159652325000     0.002633630000     0.00427    
C68      C      0.034336153333     0.278208165000     0.482558000000    -0.027246   
C69      C      0.135460793333     0.227689130000     0.491956300000    -0.079322   
C70      C      0.067623393333     0.244247840000     0.488448770000     0.02513    
C71      C      0.102170576667     0.261633550000     0.485975500000     0.026086   
N72      N      0.054607540000     0.456966850000     0.303690300000    -0.132965   
N73      N      0.116805033333     0.048304540000     0.171404600000    -0.117109   
N74      N      0.321929733333     0.005005070000     0.497245220000    -0.247075   
N75      N      0.182433286667     0.499656975000     0.478533350000    -0.268201   
O76      O      0.190641266667     0.159045280000     0.066612085000    -0.178813   
O77      O      0.314104666667     0.346226065000     0.408482850000    -0.144859   
O78      O      0.016284303333     0.395876400000     0.438473800000    -0.222406   
O79      O      0.155128300000     0.109394960000     0.036621125000    -0.2199     
O80      O      0.047551330000     0.377943900000     0.278721570000    -0.163003   
O81      O      0.123861253333     0.127327450000     0.196373375000    -0.150541   
O82      O      0.062614610000     0.035585910000     0.328766200000    -0.185364   
O83      O      0.108797966667     0.469685400000     0.146328715000    -0.177927   
O84      O      0.315619100000     0.416863750000     0.482954650000    -0.167034   
O85      O      0.188860653333     0.087943150000     0.492472915000    -0.241913   
O86      O      0.323094686667     0.094482625000     0.011084080000    -0.246864   
O87      O      0.181299666667     0.410012550000     0.465055700000    -0.310927   
O88      O      0.163687726667     0.088848710000     0.000872495000    -0.07316    
O89      O      0.006050093333     0.417108050000     0.474238275000    -0.40438    
O90      O      0.201827200000     0.155651660000     0.010039805000    -0.176886   
O91      O      0.301244020000     0.350305020000     0.465070935000    -0.134602   
F92      F      0.187701820000     0.080735600000     0.170826880000    -0.428915   
F93      F      0.317044100000     0.424535720000     0.304268050000    -0.358735   
Zn0      Zn     0.052926146667     0.471882250000     0.991860270000     0.947316   
Zn1      Zn     0.118162920000     0.031395510000     0.985462450000     0.93162    
H2       H      0.089258766667     0.097734565000     0.797213880000     0.060725   
H3       H      0.082153833333     0.407536800000     0.677881050000     0.061077   
H4       H      0.110578120000     0.129490510000     0.751345400000     0.062265   
H5       H      0.060834436667     0.375780880000     0.723749565000     0.061067   
H6       H      0.203832346667     0.116094150000     0.619778650000     0.118037   
H7       H      0.300910866667     0.389187250000     0.855312500000     0.085759   
H8       H      0.102353866667     0.088189745000     0.568903000000     0.017794   
H9       H      0.069058740000     0.417081625000     0.906191950000     0.006696   
H10      H      0.080556170000     0.056678555000     0.615222855000     0.04616    
H11      H      0.090856443333     0.448592800000     0.859872050000     0.04496    
H12      H      0.251349533333     0.400926900000     0.970501400000     0.142582   
H13      H      0.253029783333     0.103674890000     0.505388440000     0.077027   
H14      H      0.004426083333     0.408758880000     0.997065800000     0.071973   
H15      H      0.166463413333     0.095804450000     0.978639500000     0.01933    
H16      H      0.013877353333     0.087737150000     0.502623020000    -0.116887   
H17      H      0.157056760000     0.417043100000     0.973262370000     0.093531   
H18      H      0.161779890000     0.241101830000     0.989608400000     0.057385   
H19      H      0.008035230000     0.264764850000     0.984929235000     0.10632    
H20      H      0.098159550000     0.120404500000     0.508950470000    -0.002704   
H21      H      0.071536533333     0.385538350000     0.965537725000    -0.074213   
H22      H      0.128847380000     0.326795150000     0.975084650000     0.038003   
H23      H      0.040907023333     0.179077400000     0.999233485000     0.049725   
C24      C      0.003961850000     0.379442215000     0.912073200000     0.107906   
C25      C      0.167443500000     0.125832380000     0.563026400000     0.241499   
C26      C      0.056554920000     0.426132200000     0.778071350000     0.175602   
C27      C      0.114858816667     0.079140490000     0.697024540000     0.189662   
C28      C      0.065138140000     0.005373370000     0.803660450000     0.133763   
C29      C      0.106274466667     0.499897950000     0.671434475000     0.179167   
C30      C      0.078159670000     0.024237970000     0.777454250000    -0.012662   
C31      C      0.093242973333     0.481046600000     0.697641625000    -0.017001   
C32      C      0.079471216667     0.493377985000     0.750928350000     0.030972   
C33      C      0.091941406667     0.011893350000     0.724166585000     0.030287   
C34      C      0.068368163333     0.444042350000     0.751105100000    -0.045414   
C35      C      0.103044433333     0.061228970000     0.723989850000    -0.045562   
C36      C      0.089663050000     0.073275170000     0.777096550000    -0.023089   
C37      C      0.081749563333     0.431996165000     0.697998375000    -0.019848   
C38      C      0.101924490000     0.091542780000     0.750704850000    -0.002639   
C39      C      0.069488113333     0.413728550000     0.724390060000    -0.005682   
C40      C      0.164907126667     0.083781050000     0.644776075000     0.320696   
C41      C      0.006502783333     0.421500350000     0.830315050000     0.105355   
C42      C      0.176888366667     0.103164135000     0.618508025000    -0.124561   
C43      C      0.327857566667     0.402107250000     0.856586900000     0.000278   
C44      C      0.154717300000     0.104921355000     0.590764695000    -0.001327   
C45      C      0.016695280000     0.400350000000     0.884330200000     0.046875   
C46      C      0.120134966667     0.087113400000     0.589896925000    -0.030958   
C47      C      0.051277616667     0.418157950000     0.885198000000    -0.039066   
C48      C      0.107676993333     0.069018365000     0.616331295000    -0.02305    
C49      C      0.063735610000     0.436253000000     0.858763650000    -0.039894   
C50      C      0.129867823333     0.067101875000     0.644087400000    -0.00636    
C51      C      0.041542103333     0.438179500000     0.831003750000     0.059493   
C52      C      0.238868813333     0.439838380000     0.975388300000    -0.25415    
C53      C      0.265510733333     0.064784900000     0.500433205000    -0.010604   
C54      C      0.200168510000     0.450672715000     0.973041750000     0.247142   
C55      C      0.304204033333     0.053930710000     0.502865195000     0.053572   
C56      C      0.204130833333     0.037904160000     0.987231165000    -0.024849   
C57      C      0.300265053333     0.466782700000     0.988423230000     0.038496   
C58      C      0.243393933333     0.026930355000     0.991063300000     0.196808   
C59      C      0.260995166667     0.477722600000     0.984666975000     0.276374   
C60      C      0.169201613333     0.138015835000     0.504200340000     0.234946   
C61      C      0.000547313333     0.367954880000     0.970774680000     0.19001    
C62      C      0.134706033333     0.176113770000     0.500100015000    -0.020765   
C63      C      0.035062923333     0.329843900000     0.974571900000    -0.027904   
C64      C      0.102779686667     0.312675650000     0.977381675000    -0.079305   
C65      C      0.066988456667     0.193206950000     0.997000700000    -0.102323   
C66      C      0.069765480000     0.346274750000     0.971862150000    -0.004778   
C67      C      0.099978456667     0.159652325000     0.502633630000     0.00427    
C68      C      0.034336153333     0.278208165000     0.982558000000    -0.027246   
C69      C      0.135460793333     0.227689130000     0.991956300000    -0.079322   
C70      C      0.067623393333     0.244247840000     0.988448770000     0.02513    
C71      C      0.102170576667     0.261633550000     0.985975500000     0.026086   
N72      N      0.054607540000     0.456966850000     0.803690300000    -0.132965   
N73      N      0.116805033333     0.048304540000     0.671404600000    -0.117109   
N74      N      0.321929733333     0.005005070000     0.997245220000    -0.247075   
N75      N      0.182433286667     0.499656975000     0.978533350000    -0.268201   
O76      O      0.190641266667     0.159045280000     0.566612085000    -0.178813   
O77      O      0.314104666667     0.346226065000     0.908482850000    -0.144859   
O78      O      0.016284303333     0.395876400000     0.938473800000    -0.222406   
O79      O      0.155128300000     0.109394960000     0.536621125000    -0.2199     
O80      O      0.047551330000     0.377943900000     0.778721570000    -0.163003   
O81      O      0.123861253333     0.127327450000     0.696373375000    -0.150541   
O82      O      0.062614610000     0.035585910000     0.828766200000    -0.185364   
O83      O      0.108797966667     0.469685400000     0.646328715000    -0.177927   
O84      O      0.315619100000     0.416863750000     0.982954650000    -0.167034   
O85      O      0.188860653333     0.087943150000     0.992472915000    -0.241913   
O86      O      0.323094686667     0.094482625000     0.511084080000    -0.246864   
O87      O      0.181299666667     0.410012550000     0.965055700000    -0.310927   
O88      O      0.163687726667     0.088848710000     0.500872495000    -0.07316    
O89      O      0.006050093333     0.417108050000     0.974238275000    -0.40438    
O90      O      0.201827200000     0.155651660000     0.510039805000    -0.176886   
O91      O      0.301244020000     0.350305020000     0.965070935000    -0.134602   
F92      F      0.187701820000     0.080735600000     0.670826880000    -0.428915   
F93      F      0.317044100000     0.424535720000     0.804268050000    -0.358735   
Zn0      Zn     0.052926146667     0.971882250000     0.491860270000     0.947316   
Zn1      Zn     0.118162920000     0.531395510000     0.485462450000     0.93162    
H2       H      0.089258766667     0.597734565000     0.297213880000     0.060725   
H3       H      0.082153833333     0.907536800000     0.177881050000     0.061077   
H4       H      0.110578120000     0.629490510000     0.251345400000     0.062265   
H5       H      0.060834436667     0.875780880000     0.223749565000     0.061067   
H6       H      0.203832346667     0.616094150000     0.119778650000     0.118037   
H7       H      0.300910866667     0.889187250000     0.355312500000     0.085759   
H8       H      0.102353866667     0.588189745000     0.068903000000     0.017794   
H9       H      0.069058740000     0.917081625000     0.406191950000     0.006696   
H10      H      0.080556170000     0.556678555000     0.115222855000     0.04616    
H11      H      0.090856443333     0.948592800000     0.359872050000     0.04496    
H12      H      0.251349533333     0.900926900000     0.470501400000     0.142582   
H13      H      0.253029783333     0.603674890000     0.005388440000     0.077027   
H14      H      0.004426083333     0.908758880000     0.497065800000     0.071973   
H15      H      0.166463413333     0.595804450000     0.478639500000     0.01933    
H16      H      0.013877353333     0.587737150000     0.002623020000    -0.116887   
H17      H      0.157056760000     0.917043100000     0.473262370000     0.093531   
H18      H      0.161779890000     0.741101830000     0.489608400000     0.057385   
H19      H      0.008035230000     0.764764850000     0.484929235000     0.10632    
H20      H      0.098159550000     0.620404500000     0.008950470000    -0.002704   
H21      H      0.071536533333     0.885538350000     0.465537725000    -0.074213   
H22      H      0.128847380000     0.826795150000     0.475084650000     0.038003   
H23      H      0.040907023333     0.679077400000     0.499233485000     0.049725   
C24      C      0.003961850000     0.879442215000     0.412073200000     0.107906   
C25      C      0.167443500000     0.625832380000     0.063026400000     0.241499   
C26      C      0.056554920000     0.926132200000     0.278071350000     0.175602   
C27      C      0.114858816667     0.579140490000     0.197024540000     0.189662   
C28      C      0.065138140000     0.505373370000     0.303660450000     0.133763   
C29      C      0.106274466667     0.999897950000     0.171434475000     0.179167   
C30      C      0.078159670000     0.524237970000     0.277454250000    -0.012662   
C31      C      0.093242973333     0.981046600000     0.197641625000    -0.017001   
C32      C      0.079471216667     0.993377985000     0.250928350000     0.030972   
C33      C      0.091941406667     0.511893350000     0.224166585000     0.030287   
C34      C      0.068368163333     0.944042350000     0.251105100000    -0.045414   
C35      C      0.103044433333     0.561228970000     0.223989850000    -0.045562   
C36      C      0.089663050000     0.573275170000     0.277096550000    -0.023089   
C37      C      0.081749563333     0.931996165000     0.197998375000    -0.019848   
C38      C      0.101924490000     0.591542780000     0.250704850000    -0.002639   
C39      C      0.069488113333     0.913728550000     0.224390060000    -0.005682   
C40      C      0.164907126667     0.583781050000     0.144776075000     0.320696   
C41      C      0.006502783333     0.921500350000     0.330315050000     0.105355   
C42      C      0.176888366667     0.603164135000     0.118508025000    -0.124561   
C43      C      0.327857566667     0.902107250000     0.356586900000     0.000278   
C44      C      0.154717300000     0.604921355000     0.090764695000    -0.001327   
C45      C      0.016695280000     0.900350000000     0.384330200000     0.046875   
C46      C      0.120134966667     0.587113400000     0.089896925000    -0.030958   
C47      C      0.051277616667     0.918157950000     0.385198000000    -0.039066   
C48      C      0.107676993333     0.569018365000     0.116331295000    -0.02305    
C49      C      0.063735610000     0.936253000000     0.358763650000    -0.039894   
C50      C      0.129867823333     0.567101875000     0.144087400000    -0.00636    
C51      C      0.041542103333     0.938179500000     0.331003750000     0.059493   
C52      C      0.238868813333     0.939838380000     0.475388300000    -0.25415    
C53      C      0.265510733333     0.564784900000     0.000433205000    -0.010604   
C54      C      0.200168510000     0.950672715000     0.473041750000     0.247142   
C55      C      0.304204033333     0.553930710000     0.002865195000     0.053572   
C56      C      0.204130833333     0.537904160000     0.487231165000    -0.024849   
C57      C      0.300265053333     0.966782700000     0.488423230000     0.038496   
C58      C      0.243393933333     0.526930355000     0.491063300000     0.196808   
C59      C      0.260995166667     0.977722600000     0.484666975000     0.276374   
C60      C      0.169201613333     0.638015835000     0.004200340000     0.234946   
C61      C      0.000547313333     0.867954880000     0.470774680000     0.19001    
C62      C      0.134706033333     0.676113770000     0.000100015000    -0.020765   
C63      C      0.035062923333     0.829843900000     0.474571900000    -0.027904   
C64      C      0.102779686667     0.812675650000     0.477381675000    -0.079305   
C65      C      0.066988456667     0.693206950000     0.497000700000    -0.102323   
C66      C      0.069765480000     0.846274750000     0.471862150000    -0.004778   
C67      C      0.099978456667     0.659652325000     0.002633630000     0.00427    
C68      C      0.034336153333     0.778208165000     0.482558000000    -0.027246   
C69      C      0.135460793333     0.727689130000     0.491956300000    -0.079322   
C70      C      0.067623393333     0.744247840000     0.488448770000     0.02513    
C71      C      0.102170576667     0.761633550000     0.485975500000     0.026086   
N72      N      0.054607540000     0.956966850000     0.303690300000    -0.132965   
N73      N      0.116805033333     0.548304540000     0.171404600000    -0.117109   
N74      N      0.321929733333     0.505005070000     0.497245220000    -0.247075   
N75      N      0.182433286667     0.999656975000     0.478533350000    -0.268201   
O76      O      0.190641266667     0.659045280000     0.066612085000    -0.178813   
O77      O      0.314104666667     0.846226065000     0.408482850000    -0.144859   
O78      O      0.016284303333     0.895876400000     0.438473800000    -0.222406   
O79      O      0.155128300000     0.609394960000     0.036621125000    -0.2199     
O80      O      0.047551330000     0.877943900000     0.278721570000    -0.163003   
O81      O      0.123861253333     0.627327450000     0.196373375000    -0.150541   
O82      O      0.062614610000     0.535585910000     0.328766200000    -0.185364   
O83      O      0.108797966667     0.969685400000     0.146328715000    -0.177927   
O84      O      0.315619100000     0.916863750000     0.482954650000    -0.167034   
O85      O      0.188860653333     0.587943150000     0.492472915000    -0.241913   
O86      O      0.323094686667     0.594482625000     0.011084080000    -0.246864   
O87      O      0.181299666667     0.910012550000     0.465055700000    -0.310927   
O88      O      0.163687726667     0.588848710000     0.000872495000    -0.07316    
O89      O      0.006050093333     0.917108050000     0.474238275000    -0.40438    
O90      O      0.201827200000     0.655651660000     0.010039805000    -0.176886   
O91      O      0.301244020000     0.850305020000     0.465070935000    -0.134602   
F92      F      0.187701820000     0.580735600000     0.170826880000    -0.428915   
F93      F      0.317044100000     0.924535720000     0.304268050000    -0.358735   
Zn0      Zn     0.052926146667     0.971882250000     0.991860270000     0.947316   
Zn1      Zn     0.118162920000     0.531395510000     0.985462450000     0.93162    
H2       H      0.089258766667     0.597734565000     0.797213880000     0.060725   
H3       H      0.082153833333     0.907536800000     0.677881050000     0.061077   
H4       H      0.110578120000     0.629490510000     0.751345400000     0.062265   
H5       H      0.060834436667     0.875780880000     0.723749565000     0.061067   
H6       H      0.203832346667     0.616094150000     0.619778650000     0.118037   
H7       H      0.300910866667     0.889187250000     0.855312500000     0.085759   
H8       H      0.102353866667     0.588189745000     0.568903000000     0.017794   
H9       H      0.069058740000     0.917081625000     0.906191950000     0.006696   
H10      H      0.080556170000     0.556678555000     0.615222855000     0.04616    
H11      H      0.090856443333     0.948592800000     0.859872050000     0.04496    
H12      H      0.251349533333     0.900926900000     0.970501400000     0.142582   
H13      H      0.253029783333     0.603674890000     0.505388440000     0.077027   
H14      H      0.004426083333     0.908758880000     0.997065800000     0.071973   
H15      H      0.166463413333     0.595804450000     0.978639500000     0.01933    
H16      H      0.013877353333     0.587737150000     0.502623020000    -0.116887   
H17      H      0.157056760000     0.917043100000     0.973262370000     0.093531   
H18      H      0.161779890000     0.741101830000     0.989608400000     0.057385   
H19      H      0.008035230000     0.764764850000     0.984929235000     0.10632    
H20      H      0.098159550000     0.620404500000     0.508950470000    -0.002704   
H21      H      0.071536533333     0.885538350000     0.965537725000    -0.074213   
H22      H      0.128847380000     0.826795150000     0.975084650000     0.038003   
H23      H      0.040907023333     0.679077400000     0.999233485000     0.049725   
C24      C      0.003961850000     0.879442215000     0.912073200000     0.107906   
C25      C      0.167443500000     0.625832380000     0.563026400000     0.241499   
C26      C      0.056554920000     0.926132200000     0.778071350000     0.175602   
C27      C      0.114858816667     0.579140490000     0.697024540000     0.189662   
C28      C      0.065138140000     0.505373370000     0.803660450000     0.133763   
C29      C      0.106274466667     0.999897950000     0.671434475000     0.179167   
C30      C      0.078159670000     0.524237970000     0.777454250000    -0.012662   
C31      C      0.093242973333     0.981046600000     0.697641625000    -0.017001   
C32      C      0.079471216667     0.993377985000     0.750928350000     0.030972   
C33      C      0.091941406667     0.511893350000     0.724166585000     0.030287   
C34      C      0.068368163333     0.944042350000     0.751105100000    -0.045414   
C35      C      0.103044433333     0.561228970000     0.723989850000    -0.045562   
C36      C      0.089663050000     0.573275170000     0.777096550000    -0.023089   
C37      C      0.081749563333     0.931996165000     0.697998375000    -0.019848   
C38      C      0.101924490000     0.591542780000     0.750704850000    -0.002639   
C39      C      0.069488113333     0.913728550000     0.724390060000    -0.005682   
C40      C      0.164907126667     0.583781050000     0.644776075000     0.320696   
C41      C      0.006502783333     0.921500350000     0.830315050000     0.105355   
C42      C      0.176888366667     0.603164135000     0.618508025000    -0.124561   
C43      C      0.327857566667     0.902107250000     0.856586900000     0.000278   
C44      C      0.154717300000     0.604921355000     0.590764695000    -0.001327   
C45      C      0.016695280000     0.900350000000     0.884330200000     0.046875   
C46      C      0.120134966667     0.587113400000     0.589896925000    -0.030958   
C47      C      0.051277616667     0.918157950000     0.885198000000    -0.039066   
C48      C      0.107676993333     0.569018365000     0.616331295000    -0.02305    
C49      C      0.063735610000     0.936253000000     0.858763650000    -0.039894   
C50      C      0.129867823333     0.567101875000     0.644087400000    -0.00636    
C51      C      0.041542103333     0.938179500000     0.831003750000     0.059493   
C52      C      0.238868813333     0.939838380000     0.975388300000    -0.25415    
C53      C      0.265510733333     0.564784900000     0.500433205000    -0.010604   
C54      C      0.200168510000     0.950672715000     0.973041750000     0.247142   
C55      C      0.304204033333     0.553930710000     0.502865195000     0.053572   
C56      C      0.204130833333     0.537904160000     0.987231165000    -0.024849   
C57      C      0.300265053333     0.966782700000     0.988423230000     0.038496   
C58      C      0.243393933333     0.526930355000     0.991063300000     0.196808   
C59      C      0.260995166667     0.977722600000     0.984666975000     0.276374   
C60      C      0.169201613333     0.638015835000     0.504200340000     0.234946   
C61      C      0.000547313333     0.867954880000     0.970774680000     0.19001    
C62      C      0.134706033333     0.676113770000     0.500100015000    -0.020765   
C63      C      0.035062923333     0.829843900000     0.974571900000    -0.027904   
C64      C      0.102779686667     0.812675650000     0.977381675000    -0.079305   
C65      C      0.066988456667     0.693206950000     0.997000700000    -0.102323   
C66      C      0.069765480000     0.846274750000     0.971862150000    -0.004778   
C67      C      0.099978456667     0.659652325000     0.502633630000     0.00427    
C68      C      0.034336153333     0.778208165000     0.982558000000    -0.027246   
C69      C      0.135460793333     0.727689130000     0.991956300000    -0.079322   
C70      C      0.067623393333     0.744247840000     0.988448770000     0.02513    
C71      C      0.102170576667     0.761633550000     0.985975500000     0.026086   
N72      N      0.054607540000     0.956966850000     0.803690300000    -0.132965   
N73      N      0.116805033333     0.548304540000     0.671404600000    -0.117109   
N74      N      0.321929733333     0.505005070000     0.997245220000    -0.247075   
N75      N      0.182433286667     0.999656975000     0.978533350000    -0.268201   
O76      O      0.190641266667     0.659045280000     0.566612085000    -0.178813   
O77      O      0.314104666667     0.846226065000     0.908482850000    -0.144859   
O78      O      0.016284303333     0.895876400000     0.938473800000    -0.222406   
O79      O      0.155128300000     0.609394960000     0.536621125000    -0.2199     
O80      O      0.047551330000     0.877943900000     0.778721570000    -0.163003   
O81      O      0.123861253333     0.627327450000     0.696373375000    -0.150541   
O82      O      0.062614610000     0.535585910000     0.828766200000    -0.185364   
O83      O      0.108797966667     0.969685400000     0.646328715000    -0.177927   
O84      O      0.315619100000     0.916863750000     0.982954650000    -0.167034   
O85      O      0.188860653333     0.587943150000     0.992472915000    -0.241913   
O86      O      0.323094686667     0.594482625000     0.511084080000    -0.246864   
O87      O      0.181299666667     0.910012550000     0.965055700000    -0.310927   
O88      O      0.163687726667     0.588848710000     0.500872495000    -0.07316    
O89      O      0.006050093333     0.917108050000     0.974238275000    -0.40438    
O90      O      0.201827200000     0.655651660000     0.510039805000    -0.176886   
O91      O      0.301244020000     0.850305020000     0.965070935000    -0.134602   
F92      F      0.187701820000     0.580735600000     0.670826880000    -0.428915   
F93      F      0.317044100000     0.924535720000     0.804268050000    -0.358735   
Zn0      Zn     0.386259480000     0.471882250000     0.491860270000     0.947316   
Zn1      Zn     0.451496253333     0.031395510000     0.485462450000     0.93162    
H2       H      0.422592100000     0.097734565000     0.297213880000     0.060725   
H3       H      0.415487166667     0.407536800000     0.177881050000     0.061077   
H4       H      0.443911453333     0.129490510000     0.251345400000     0.062265   
H5       H      0.394167770000     0.375780880000     0.223749565000     0.061067   
H6       H      0.537165680000     0.116094150000     0.119778650000     0.118037   
H7       H      0.634244200000     0.389187250000     0.355312500000     0.085759   
H8       H      0.435687200000     0.088189745000     0.068903000000     0.017794   
H9       H      0.402392073333     0.417081625000     0.406191950000     0.006696   
H10      H      0.413889503333     0.056678555000     0.115222855000     0.04616    
H11      H      0.424189776667     0.448592800000     0.359872050000     0.04496    
H12      H      0.584682866667     0.400926900000     0.470501400000     0.142582   
H13      H      0.586363116667     0.103674890000     0.005388440000     0.077027   
H14      H      0.337759416667     0.408758880000     0.497065800000     0.071973   
H15      H      0.499796746667     0.095804450000     0.478639500000     0.01933    
H16      H      0.347210686667     0.087737150000     0.002623020000    -0.116887   
H17      H      0.490390093333     0.417043100000     0.473262370000     0.093531   
H18      H      0.495113223333     0.241101830000     0.489608400000     0.057385   
H19      H      0.341368563333     0.264764850000     0.484929235000     0.10632    
H20      H      0.431492883333     0.120404500000     0.008950470000    -0.002704   
H21      H      0.404869866667     0.385538350000     0.465537725000    -0.074213   
H22      H      0.462180713333     0.326795150000     0.475084650000     0.038003   
H23      H      0.374240356667     0.179077400000     0.499233485000     0.049725   
C24      C      0.337295183333     0.379442215000     0.412073200000     0.107906   
C25      C      0.500776833333     0.125832380000     0.063026400000     0.241499   
C26      C      0.389888253333     0.426132200000     0.278071350000     0.175602   
C27      C      0.448192150000     0.079140490000     0.197024540000     0.189662   
C28      C      0.398471473333     0.005373370000     0.303660450000     0.133763   
C29      C      0.439607800000     0.499897950000     0.171434475000     0.179167   
C30      C      0.411493003333     0.024237970000     0.277454250000    -0.012662   
C31      C      0.426576306667     0.481046600000     0.197641625000    -0.017001   
C32      C      0.412804550000     0.493377985000     0.250928350000     0.030972   
C33      C      0.425274740000     0.011893350000     0.224166585000     0.030287   
C34      C      0.401701496667     0.444042350000     0.251105100000    -0.045414   
C35      C      0.436377766667     0.061228970000     0.223989850000    -0.045562   
C36      C      0.422996383333     0.073275170000     0.277096550000    -0.023089   
C37      C      0.415082896667     0.431996165000     0.197998375000    -0.019848   
C38      C      0.435257823333     0.091542780000     0.250704850000    -0.002639   
C39      C      0.402821446667     0.413728550000     0.224390060000    -0.005682   
C40      C      0.498240460000     0.083781050000     0.144776075000     0.320696   
C41      C      0.339836116667     0.421500350000     0.330315050000     0.105355   
C42      C      0.510221700000     0.103164135000     0.118508025000    -0.124561   
C43      C      0.661190900000     0.402107250000     0.356586900000     0.000278   
C44      C      0.488050633333     0.104921355000     0.090764695000    -0.001327   
C45      C      0.350028613333     0.400350000000     0.384330200000     0.046875   
C46      C      0.453468300000     0.087113400000     0.089896925000    -0.030958   
C47      C      0.384610950000     0.418157950000     0.385198000000    -0.039066   
C48      C      0.441010326667     0.069018365000     0.116331295000    -0.02305    
C49      C      0.397068943333     0.436253000000     0.358763650000    -0.039894   
C50      C      0.463201156667     0.067101875000     0.144087400000    -0.00636    
C51      C      0.374875436667     0.438179500000     0.331003750000     0.059493   
C52      C      0.572202146667     0.439838380000     0.475388300000    -0.25415    
C53      C      0.598844066667     0.064784900000     0.000433205000    -0.010604   
C54      C      0.533501843333     0.450672715000     0.473041750000     0.247142   
C55      C      0.637537366667     0.053930710000     0.002865195000     0.053572   
C56      C      0.537464166667     0.037904160000     0.487231165000    -0.024849   
C57      C      0.633598386667     0.466782700000     0.488423230000     0.038496   
C58      C      0.576727266667     0.026930355000     0.491063300000     0.196808   
C59      C      0.594328500000     0.477722600000     0.484666975000     0.276374   
C60      C      0.502534946667     0.138015835000     0.004200340000     0.234946   
C61      C      0.333880646667     0.367954880000     0.470774680000     0.19001    
C62      C      0.468039366667     0.176113770000     0.000100015000    -0.020765   
C63      C      0.368396256667     0.329843900000     0.474571900000    -0.027904   
C64      C      0.436113020000     0.312675650000     0.477381675000    -0.079305   
C65      C      0.400321790000     0.193206950000     0.497000700000    -0.102323   
C66      C      0.403098813333     0.346274750000     0.471862150000    -0.004778   
C67      C      0.433311790000     0.159652325000     0.002633630000     0.00427    
C68      C      0.367669486667     0.278208165000     0.482558000000    -0.027246   
C69      C      0.468794126667     0.227689130000     0.491956300000    -0.079322   
C70      C      0.400956726667     0.244247840000     0.488448770000     0.02513    
C71      C      0.435503910000     0.261633550000     0.485975500000     0.026086   
N72      N      0.387940873333     0.456966850000     0.303690300000    -0.132965   
N73      N      0.450138366667     0.048304540000     0.171404600000    -0.117109   
N74      N      0.655263066667     0.005005070000     0.497245220000    -0.247075   
N75      N      0.515766620000     0.499656975000     0.478533350000    -0.268201   
O76      O      0.523974600000     0.159045280000     0.066612085000    -0.178813   
O77      O      0.647438000000     0.346226065000     0.408482850000    -0.144859   
O78      O      0.349617636667     0.395876400000     0.438473800000    -0.222406   
O79      O      0.488461633333     0.109394960000     0.036621125000    -0.2199     
O80      O      0.380884663333     0.377943900000     0.278721570000    -0.163003   
O81      O      0.457194586667     0.127327450000     0.196373375000    -0.150541   
O82      O      0.395947943333     0.035585910000     0.328766200000    -0.185364   
O83      O      0.442131300000     0.469685400000     0.146328715000    -0.177927   
O84      O      0.648952433333     0.416863750000     0.482954650000    -0.167034   
O85      O      0.522193986667     0.087943150000     0.492472915000    -0.241913   
O86      O      0.656428020000     0.094482625000     0.011084080000    -0.246864   
O87      O      0.514633000000     0.410012550000     0.465055700000    -0.310927   
O88      O      0.497021060000     0.088848710000     0.000872495000    -0.07316    
O89      O      0.339383426667     0.417108050000     0.474238275000    -0.40438    
O90      O      0.535160533333     0.155651660000     0.010039805000    -0.176886   
O91      O      0.634577353333     0.350305020000     0.465070935000    -0.134602   
F92      F      0.521035153333     0.080735600000     0.170826880000    -0.428915   
F93      F      0.650377433333     0.424535720000     0.304268050000    -0.358735   
Zn0      Zn     0.386259480000     0.471882250000     0.991860270000     0.947316   
Zn1      Zn     0.451496253333     0.031395510000     0.985462450000     0.93162    
H2       H      0.422592100000     0.097734565000     0.797213880000     0.060725   
H3       H      0.415487166667     0.407536800000     0.677881050000     0.061077   
H4       H      0.443911453333     0.129490510000     0.751345400000     0.062265   
H5       H      0.394167770000     0.375780880000     0.723749565000     0.061067   
H6       H      0.537165680000     0.116094150000     0.619778650000     0.118037   
H7       H      0.634244200000     0.389187250000     0.855312500000     0.085759   
H8       H      0.435687200000     0.088189745000     0.568903000000     0.017794   
H9       H      0.402392073333     0.417081625000     0.906191950000     0.006696   
H10      H      0.413889503333     0.056678555000     0.615222855000     0.04616    
H11      H      0.424189776667     0.448592800000     0.859872050000     0.04496    
H12      H      0.584682866667     0.400926900000     0.970501400000     0.142582   
H13      H      0.586363116667     0.103674890000     0.505388440000     0.077027   
H14      H      0.337759416667     0.408758880000     0.997065800000     0.071973   
H15      H      0.499796746667     0.095804450000     0.978639500000     0.01933    
H16      H      0.347210686667     0.087737150000     0.502623020000    -0.116887   
H17      H      0.490390093333     0.417043100000     0.973262370000     0.093531   
H18      H      0.495113223333     0.241101830000     0.989608400000     0.057385   
H19      H      0.341368563333     0.264764850000     0.984929235000     0.10632    
H20      H      0.431492883333     0.120404500000     0.508950470000    -0.002704   
H21      H      0.404869866667     0.385538350000     0.965537725000    -0.074213   
H22      H      0.462180713333     0.326795150000     0.975084650000     0.038003   
H23      H      0.374240356667     0.179077400000     0.999233485000     0.049725   
C24      C      0.337295183333     0.379442215000     0.912073200000     0.107906   
C25      C      0.500776833333     0.125832380000     0.563026400000     0.241499   
C26      C      0.389888253333     0.426132200000     0.778071350000     0.175602   
C27      C      0.448192150000     0.079140490000     0.697024540000     0.189662   
C28      C      0.398471473333     0.005373370000     0.803660450000     0.133763   
C29      C      0.439607800000     0.499897950000     0.671434475000     0.179167   
C30      C      0.411493003333     0.024237970000     0.777454250000    -0.012662   
C31      C      0.426576306667     0.481046600000     0.697641625000    -0.017001   
C32      C      0.412804550000     0.493377985000     0.750928350000     0.030972   
C33      C      0.425274740000     0.011893350000     0.724166585000     0.030287   
C34      C      0.401701496667     0.444042350000     0.751105100000    -0.045414   
C35      C      0.436377766667     0.061228970000     0.723989850000    -0.045562   
C36      C      0.422996383333     0.073275170000     0.777096550000    -0.023089   
C37      C      0.415082896667     0.431996165000     0.697998375000    -0.019848   
C38      C      0.435257823333     0.091542780000     0.750704850000    -0.002639   
C39      C      0.402821446667     0.413728550000     0.724390060000    -0.005682   
C40      C      0.498240460000     0.083781050000     0.644776075000     0.320696   
C41      C      0.339836116667     0.421500350000     0.830315050000     0.105355   
C42      C      0.510221700000     0.103164135000     0.618508025000    -0.124561   
C43      C      0.661190900000     0.402107250000     0.856586900000     0.000278   
C44      C      0.488050633333     0.104921355000     0.590764695000    -0.001327   
C45      C      0.350028613333     0.400350000000     0.884330200000     0.046875   
C46      C      0.453468300000     0.087113400000     0.589896925000    -0.030958   
C47      C      0.384610950000     0.418157950000     0.885198000000    -0.039066   
C48      C      0.441010326667     0.069018365000     0.616331295000    -0.02305    
C49      C      0.397068943333     0.436253000000     0.858763650000    -0.039894   
C50      C      0.463201156667     0.067101875000     0.644087400000    -0.00636    
C51      C      0.374875436667     0.438179500000     0.831003750000     0.059493   
C52      C      0.572202146667     0.439838380000     0.975388300000    -0.25415    
C53      C      0.598844066667     0.064784900000     0.500433205000    -0.010604   
C54      C      0.533501843333     0.450672715000     0.973041750000     0.247142   
C55      C      0.637537366667     0.053930710000     0.502865195000     0.053572   
C56      C      0.537464166667     0.037904160000     0.987231165000    -0.024849   
C57      C      0.633598386667     0.466782700000     0.988423230000     0.038496   
C58      C      0.576727266667     0.026930355000     0.991063300000     0.196808   
C59      C      0.594328500000     0.477722600000     0.984666975000     0.276374   
C60      C      0.502534946667     0.138015835000     0.504200340000     0.234946   
C61      C      0.333880646667     0.367954880000     0.970774680000     0.19001    
C62      C      0.468039366667     0.176113770000     0.500100015000    -0.020765   
C63      C      0.368396256667     0.329843900000     0.974571900000    -0.027904   
C64      C      0.436113020000     0.312675650000     0.977381675000    -0.079305   
C65      C      0.400321790000     0.193206950000     0.997000700000    -0.102323   
C66      C      0.403098813333     0.346274750000     0.971862150000    -0.004778   
C67      C      0.433311790000     0.159652325000     0.502633630000     0.00427    
C68      C      0.367669486667     0.278208165000     0.982558000000    -0.027246   
C69      C      0.468794126667     0.227689130000     0.991956300000    -0.079322   
C70      C      0.400956726667     0.244247840000     0.988448770000     0.02513    
C71      C      0.435503910000     0.261633550000     0.985975500000     0.026086   
N72      N      0.387940873333     0.456966850000     0.803690300000    -0.132965   
N73      N      0.450138366667     0.048304540000     0.671404600000    -0.117109   
N74      N      0.655263066667     0.005005070000     0.997245220000    -0.247075   
N75      N      0.515766620000     0.499656975000     0.978533350000    -0.268201   
O76      O      0.523974600000     0.159045280000     0.566612085000    -0.178813   
O77      O      0.647438000000     0.346226065000     0.908482850000    -0.144859   
O78      O      0.349617636667     0.395876400000     0.938473800000    -0.222406   
O79      O      0.488461633333     0.109394960000     0.536621125000    -0.2199     
O80      O      0.380884663333     0.377943900000     0.778721570000    -0.163003   
O81      O      0.457194586667     0.127327450000     0.696373375000    -0.150541   
O82      O      0.395947943333     0.035585910000     0.828766200000    -0.185364   
O83      O      0.442131300000     0.469685400000     0.646328715000    -0.177927   
O84      O      0.648952433333     0.416863750000     0.982954650000    -0.167034   
O85      O      0.522193986667     0.087943150000     0.992472915000    -0.241913   
O86      O      0.656428020000     0.094482625000     0.511084080000    -0.246864   
O87      O      0.514633000000     0.410012550000     0.965055700000    -0.310927   
O88      O      0.497021060000     0.088848710000     0.500872495000    -0.07316    
O89      O      0.339383426667     0.417108050000     0.974238275000    -0.40438    
O90      O      0.535160533333     0.155651660000     0.510039805000    -0.176886   
O91      O      0.634577353333     0.350305020000     0.965070935000    -0.134602   
F92      F      0.521035153333     0.080735600000     0.670826880000    -0.428915   
F93      F      0.650377433333     0.424535720000     0.804268050000    -0.358735   
Zn0      Zn     0.386259480000     0.971882250000     0.491860270000     0.947316   
Zn1      Zn     0.451496253333     0.531395510000     0.485462450000     0.93162    
H2       H      0.422592100000     0.597734565000     0.297213880000     0.060725   
H3       H      0.415487166667     0.907536800000     0.177881050000     0.061077   
H4       H      0.443911453333     0.629490510000     0.251345400000     0.062265   
H5       H      0.394167770000     0.875780880000     0.223749565000     0.061067   
H6       H      0.537165680000     0.616094150000     0.119778650000     0.118037   
H7       H      0.634244200000     0.889187250000     0.355312500000     0.085759   
H8       H      0.435687200000     0.588189745000     0.068903000000     0.017794   
H9       H      0.402392073333     0.917081625000     0.406191950000     0.006696   
H10      H      0.413889503333     0.556678555000     0.115222855000     0.04616    
H11      H      0.424189776667     0.948592800000     0.359872050000     0.04496    
H12      H      0.584682866667     0.900926900000     0.470501400000     0.142582   
H13      H      0.586363116667     0.603674890000     0.005388440000     0.077027   
H14      H      0.337759416667     0.908758880000     0.497065800000     0.071973   
H15      H      0.499796746667     0.595804450000     0.478639500000     0.01933    
H16      H      0.347210686667     0.587737150000     0.002623020000    -0.116887   
H17      H      0.490390093333     0.917043100000     0.473262370000     0.093531   
H18      H      0.495113223333     0.741101830000     0.489608400000     0.057385   
H19      H      0.341368563333     0.764764850000     0.484929235000     0.10632    
H20      H      0.431492883333     0.620404500000     0.008950470000    -0.002704   
H21      H      0.404869866667     0.885538350000     0.465537725000    -0.074213   
H22      H      0.462180713333     0.826795150000     0.475084650000     0.038003   
H23      H      0.374240356667     0.679077400000     0.499233485000     0.049725   
C24      C      0.337295183333     0.879442215000     0.412073200000     0.107906   
C25      C      0.500776833333     0.625832380000     0.063026400000     0.241499   
C26      C      0.389888253333     0.926132200000     0.278071350000     0.175602   
C27      C      0.448192150000     0.579140490000     0.197024540000     0.189662   
C28      C      0.398471473333     0.505373370000     0.303660450000     0.133763   
C29      C      0.439607800000     0.999897950000     0.171434475000     0.179167   
C30      C      0.411493003333     0.524237970000     0.277454250000    -0.012662   
C31      C      0.426576306667     0.981046600000     0.197641625000    -0.017001   
C32      C      0.412804550000     0.993377985000     0.250928350000     0.030972   
C33      C      0.425274740000     0.511893350000     0.224166585000     0.030287   
C34      C      0.401701496667     0.944042350000     0.251105100000    -0.045414   
C35      C      0.436377766667     0.561228970000     0.223989850000    -0.045562   
C36      C      0.422996383333     0.573275170000     0.277096550000    -0.023089   
C37      C      0.415082896667     0.931996165000     0.197998375000    -0.019848   
C38      C      0.435257823333     0.591542780000     0.250704850000    -0.002639   
C39      C      0.402821446667     0.913728550000     0.224390060000    -0.005682   
C40      C      0.498240460000     0.583781050000     0.144776075000     0.320696   
C41      C      0.339836116667     0.921500350000     0.330315050000     0.105355   
C42      C      0.510221700000     0.603164135000     0.118508025000    -0.124561   
C43      C      0.661190900000     0.902107250000     0.356586900000     0.000278   
C44      C      0.488050633333     0.604921355000     0.090764695000    -0.001327   
C45      C      0.350028613333     0.900350000000     0.384330200000     0.046875   
C46      C      0.453468300000     0.587113400000     0.089896925000    -0.030958   
C47      C      0.384610950000     0.918157950000     0.385198000000    -0.039066   
C48      C      0.441010326667     0.569018365000     0.116331295000    -0.02305    
C49      C      0.397068943333     0.936253000000     0.358763650000    -0.039894   
C50      C      0.463201156667     0.567101875000     0.144087400000    -0.00636    
C51      C      0.374875436667     0.938179500000     0.331003750000     0.059493   
C52      C      0.572202146667     0.939838380000     0.475388300000    -0.25415    
C53      C      0.598844066667     0.564784900000     0.000433205000    -0.010604   
C54      C      0.533501843333     0.950672715000     0.473041750000     0.247142   
C55      C      0.637537366667     0.553930710000     0.002865195000     0.053572   
C56      C      0.537464166667     0.537904160000     0.487231165000    -0.024849   
C57      C      0.633598386667     0.966782700000     0.488423230000     0.038496   
C58      C      0.576727266667     0.526930355000     0.491063300000     0.196808   
C59      C      0.594328500000     0.977722600000     0.484666975000     0.276374   
C60      C      0.502534946667     0.638015835000     0.004200340000     0.234946   
C61      C      0.333880646667     0.867954880000     0.470774680000     0.19001    
C62      C      0.468039366667     0.676113770000     0.000100015000    -0.020765   
C63      C      0.368396256667     0.829843900000     0.474571900000    -0.027904   
C64      C      0.436113020000     0.812675650000     0.477381675000    -0.079305   
C65      C      0.400321790000     0.693206950000     0.497000700000    -0.102323   
C66      C      0.403098813333     0.846274750000     0.471862150000    -0.004778   
C67      C      0.433311790000     0.659652325000     0.002633630000     0.00427    
C68      C      0.367669486667     0.778208165000     0.482558000000    -0.027246   
C69      C      0.468794126667     0.727689130000     0.491956300000    -0.079322   
C70      C      0.400956726667     0.744247840000     0.488448770000     0.02513    
C71      C      0.435503910000     0.761633550000     0.485975500000     0.026086   
N72      N      0.387940873333     0.956966850000     0.303690300000    -0.132965   
N73      N      0.450138366667     0.548304540000     0.171404600000    -0.117109   
N74      N      0.655263066667     0.505005070000     0.497245220000    -0.247075   
N75      N      0.515766620000     0.999656975000     0.478533350000    -0.268201   
O76      O      0.523974600000     0.659045280000     0.066612085000    -0.178813   
O77      O      0.647438000000     0.846226065000     0.408482850000    -0.144859   
O78      O      0.349617636667     0.895876400000     0.438473800000    -0.222406   
O79      O      0.488461633333     0.609394960000     0.036621125000    -0.2199     
O80      O      0.380884663333     0.877943900000     0.278721570000    -0.163003   
O81      O      0.457194586667     0.627327450000     0.196373375000    -0.150541   
O82      O      0.395947943333     0.535585910000     0.328766200000    -0.185364   
O83      O      0.442131300000     0.969685400000     0.146328715000    -0.177927   
O84      O      0.648952433333     0.916863750000     0.482954650000    -0.167034   
O85      O      0.522193986667     0.587943150000     0.492472915000    -0.241913   
O86      O      0.656428020000     0.594482625000     0.011084080000    -0.246864   
O87      O      0.514633000000     0.910012550000     0.465055700000    -0.310927   
O88      O      0.497021060000     0.588848710000     0.000872495000    -0.07316    
O89      O      0.339383426667     0.917108050000     0.474238275000    -0.40438    
O90      O      0.535160533333     0.655651660000     0.010039805000    -0.176886   
O91      O      0.634577353333     0.850305020000     0.465070935000    -0.134602   
F92      F      0.521035153333     0.580735600000     0.170826880000    -0.428915   
F93      F      0.650377433333     0.924535720000     0.304268050000    -0.358735   
Zn0      Zn     0.386259480000     0.971882250000     0.991860270000     0.947316   
Zn1      Zn     0.451496253333     0.531395510000     0.985462450000     0.93162    
H2       H      0.422592100000     0.597734565000     0.797213880000     0.060725   
H3       H      0.415487166667     0.907536800000     0.677881050000     0.061077   
H4       H      0.443911453333     0.629490510000     0.751345400000     0.062265   
H5       H      0.394167770000     0.875780880000     0.723749565000     0.061067   
H6       H      0.537165680000     0.616094150000     0.619778650000     0.118037   
H7       H      0.634244200000     0.889187250000     0.855312500000     0.085759   
H8       H      0.435687200000     0.588189745000     0.568903000000     0.017794   
H9       H      0.402392073333     0.917081625000     0.906191950000     0.006696   
H10      H      0.413889503333     0.556678555000     0.615222855000     0.04616    
H11      H      0.424189776667     0.948592800000     0.859872050000     0.04496    
H12      H      0.584682866667     0.900926900000     0.970501400000     0.142582   
H13      H      0.586363116667     0.603674890000     0.505388440000     0.077027   
H14      H      0.337759416667     0.908758880000     0.997065800000     0.071973   
H15      H      0.499796746667     0.595804450000     0.978639500000     0.01933    
H16      H      0.347210686667     0.587737150000     0.502623020000    -0.116887   
H17      H      0.490390093333     0.917043100000     0.973262370000     0.093531   
H18      H      0.495113223333     0.741101830000     0.989608400000     0.057385   
H19      H      0.341368563333     0.764764850000     0.984929235000     0.10632    
H20      H      0.431492883333     0.620404500000     0.508950470000    -0.002704   
H21      H      0.404869866667     0.885538350000     0.965537725000    -0.074213   
H22      H      0.462180713333     0.826795150000     0.975084650000     0.038003   
H23      H      0.374240356667     0.679077400000     0.999233485000     0.049725   
C24      C      0.337295183333     0.879442215000     0.912073200000     0.107906   
C25      C      0.500776833333     0.625832380000     0.563026400000     0.241499   
C26      C      0.389888253333     0.926132200000     0.778071350000     0.175602   
C27      C      0.448192150000     0.579140490000     0.697024540000     0.189662   
C28      C      0.398471473333     0.505373370000     0.803660450000     0.133763   
C29      C      0.439607800000     0.999897950000     0.671434475000     0.179167   
C30      C      0.411493003333     0.524237970000     0.777454250000    -0.012662   
C31      C      0.426576306667     0.981046600000     0.697641625000    -0.017001   
C32      C      0.412804550000     0.993377985000     0.750928350000     0.030972   
C33      C      0.425274740000     0.511893350000     0.724166585000     0.030287   
C34      C      0.401701496667     0.944042350000     0.751105100000    -0.045414   
C35      C      0.436377766667     0.561228970000     0.723989850000    -0.045562   
C36      C      0.422996383333     0.573275170000     0.777096550000    -0.023089   
C37      C      0.415082896667     0.931996165000     0.697998375000    -0.019848   
C38      C      0.435257823333     0.591542780000     0.750704850000    -0.002639   
C39      C      0.402821446667     0.913728550000     0.724390060000    -0.005682   
C40      C      0.498240460000     0.583781050000     0.644776075000     0.320696   
C41      C      0.339836116667     0.921500350000     0.830315050000     0.105355   
C42      C      0.510221700000     0.603164135000     0.618508025000    -0.124561   
C43      C      0.661190900000     0.902107250000     0.856586900000     0.000278   
C44      C      0.488050633333     0.604921355000     0.590764695000    -0.001327   
C45      C      0.350028613333     0.900350000000     0.884330200000     0.046875   
C46      C      0.453468300000     0.587113400000     0.589896925000    -0.030958   
C47      C      0.384610950000     0.918157950000     0.885198000000    -0.039066   
C48      C      0.441010326667     0.569018365000     0.616331295000    -0.02305    
C49      C      0.397068943333     0.936253000000     0.858763650000    -0.039894   
C50      C      0.463201156667     0.567101875000     0.644087400000    -0.00636    
C51      C      0.374875436667     0.938179500000     0.831003750000     0.059493   
C52      C      0.572202146667     0.939838380000     0.975388300000    -0.25415    
C53      C      0.598844066667     0.564784900000     0.500433205000    -0.010604   
C54      C      0.533501843333     0.950672715000     0.973041750000     0.247142   
C55      C      0.637537366667     0.553930710000     0.502865195000     0.053572   
C56      C      0.537464166667     0.537904160000     0.987231165000    -0.024849   
C57      C      0.633598386667     0.966782700000     0.988423230000     0.038496   
C58      C      0.576727266667     0.526930355000     0.991063300000     0.196808   
C59      C      0.594328500000     0.977722600000     0.984666975000     0.276374   
C60      C      0.502534946667     0.638015835000     0.504200340000     0.234946   
C61      C      0.333880646667     0.867954880000     0.970774680000     0.19001    
C62      C      0.468039366667     0.676113770000     0.500100015000    -0.020765   
C63      C      0.368396256667     0.829843900000     0.974571900000    -0.027904   
C64      C      0.436113020000     0.812675650000     0.977381675000    -0.079305   
C65      C      0.400321790000     0.693206950000     0.997000700000    -0.102323   
C66      C      0.403098813333     0.846274750000     0.971862150000    -0.004778   
C67      C      0.433311790000     0.659652325000     0.502633630000     0.00427    
C68      C      0.367669486667     0.778208165000     0.982558000000    -0.027246   
C69      C      0.468794126667     0.727689130000     0.991956300000    -0.079322   
C70      C      0.400956726667     0.744247840000     0.988448770000     0.02513    
C71      C      0.435503910000     0.761633550000     0.985975500000     0.026086   
N72      N      0.387940873333     0.956966850000     0.803690300000    -0.132965   
N73      N      0.450138366667     0.548304540000     0.671404600000    -0.117109   
N74      N      0.655263066667     0.505005070000     0.997245220000    -0.247075   
N75      N      0.515766620000     0.999656975000     0.978533350000    -0.268201   
O76      O      0.523974600000     0.659045280000     0.566612085000    -0.178813   
O77      O      0.647438000000     0.846226065000     0.908482850000    -0.144859   
O78      O      0.349617636667     0.895876400000     0.938473800000    -0.222406   
O79      O      0.488461633333     0.609394960000     0.536621125000    -0.2199     
O80      O      0.380884663333     0.877943900000     0.778721570000    -0.163003   
O81      O      0.457194586667     0.627327450000     0.696373375000    -0.150541   
O82      O      0.395947943333     0.535585910000     0.828766200000    -0.185364   
O83      O      0.442131300000     0.969685400000     0.646328715000    -0.177927   
O84      O      0.648952433333     0.916863750000     0.982954650000    -0.167034   
O85      O      0.522193986667     0.587943150000     0.992472915000    -0.241913   
O86      O      0.656428020000     0.594482625000     0.511084080000    -0.246864   
O87      O      0.514633000000     0.910012550000     0.965055700000    -0.310927   
O88      O      0.497021060000     0.588848710000     0.500872495000    -0.07316    
O89      O      0.339383426667     0.917108050000     0.974238275000    -0.40438    
O90      O      0.535160533333     0.655651660000     0.510039805000    -0.176886   
O91      O      0.634577353333     0.850305020000     0.965070935000    -0.134602   
F92      F      0.521035153333     0.580735600000     0.670826880000    -0.428915   
F93      F      0.650377433333     0.924535720000     0.804268050000    -0.358735   
Zn0      Zn     0.719592813333     0.471882250000     0.491860270000     0.947316   
Zn1      Zn     0.784829586667     0.031395510000     0.485462450000     0.93162    
H2       H      0.755925433333     0.097734565000     0.297213880000     0.060725   
H3       H      0.748820500000     0.407536800000     0.177881050000     0.061077   
H4       H      0.777244786667     0.129490510000     0.251345400000     0.062265   
H5       H      0.727501103333     0.375780880000     0.223749565000     0.061067   
H6       H      0.870499013333     0.116094150000     0.119778650000     0.118037   
H7       H      0.967577533333     0.389187250000     0.355312500000     0.085759   
H8       H      0.769020533333     0.088189745000     0.068903000000     0.017794   
H9       H      0.735725406667     0.417081625000     0.406191950000     0.006696   
H10      H      0.747222836667     0.056678555000     0.115222855000     0.04616    
H11      H      0.757523110000     0.448592800000     0.359872050000     0.04496    
H12      H      0.918016200000     0.400926900000     0.470501400000     0.142582   
H13      H      0.919696450000     0.103674890000     0.005388440000     0.077027   
H14      H      0.671092750000     0.408758880000     0.497065800000     0.071973   
H15      H      0.833130080000     0.095804450000     0.478639500000     0.01933    
H16      H      0.680544020000     0.087737150000     0.002623020000    -0.116887   
H17      H      0.823723426667     0.417043100000     0.473262370000     0.093531   
H18      H      0.828446556667     0.241101830000     0.489608400000     0.057385   
H19      H      0.674701896667     0.264764850000     0.484929235000     0.10632    
H20      H      0.764826216667     0.120404500000     0.008950470000    -0.002704   
H21      H      0.738203200000     0.385538350000     0.465537725000    -0.074213   
H22      H      0.795514046667     0.326795150000     0.475084650000     0.038003   
H23      H      0.707573690000     0.179077400000     0.499233485000     0.049725   
C24      C      0.670628516667     0.379442215000     0.412073200000     0.107906   
C25      C      0.834110166667     0.125832380000     0.063026400000     0.241499   
C26      C      0.723221586667     0.426132200000     0.278071350000     0.175602   
C27      C      0.781525483333     0.079140490000     0.197024540000     0.189662   
C28      C      0.731804806667     0.005373370000     0.303660450000     0.133763   
C29      C      0.772941133333     0.499897950000     0.171434475000     0.179167   
C30      C      0.744826336667     0.024237970000     0.277454250000    -0.012662   
C31      C      0.759909640000     0.481046600000     0.197641625000    -0.017001   
C32      C      0.746137883333     0.493377985000     0.250928350000     0.030972   
C33      C      0.758608073333     0.011893350000     0.224166585000     0.030287   
C34      C      0.735034830000     0.444042350000     0.251105100000    -0.045414   
C35      C      0.769711100000     0.061228970000     0.223989850000    -0.045562   
C36      C      0.756329716667     0.073275170000     0.277096550000    -0.023089   
C37      C      0.748416230000     0.431996165000     0.197998375000    -0.019848   
C38      C      0.768591156667     0.091542780000     0.250704850000    -0.002639   
C39      C      0.736154780000     0.413728550000     0.224390060000    -0.005682   
C40      C      0.831573793333     0.083781050000     0.144776075000     0.320696   
C41      C      0.673169450000     0.421500350000     0.330315050000     0.105355   
C42      C      0.843555033333     0.103164135000     0.118508025000    -0.124561   
C43      C      0.994524233333     0.402107250000     0.356586900000     0.000278   
C44      C      0.821383966667     0.104921355000     0.090764695000    -0.001327   
C45      C      0.683361946667     0.400350000000     0.384330200000     0.046875   
C46      C      0.786801633333     0.087113400000     0.089896925000    -0.030958   
C47      C      0.717944283333     0.418157950000     0.385198000000    -0.039066   
C48      C      0.774343660000     0.069018365000     0.116331295000    -0.02305    
C49      C      0.730402276667     0.436253000000     0.358763650000    -0.039894   
C50      C      0.796534490000     0.067101875000     0.144087400000    -0.00636    
C51      C      0.708208770000     0.438179500000     0.331003750000     0.059493   
C52      C      0.905535480000     0.439838380000     0.475388300000    -0.25415    
C53      C      0.932177400000     0.064784900000     0.000433205000    -0.010604   
C54      C      0.866835176667     0.450672715000     0.473041750000     0.247142   
C55      C      0.970870700000     0.053930710000     0.002865195000     0.053572   
C56      C      0.870797500000     0.037904160000     0.487231165000    -0.024849   
C57      C      0.966931720000     0.466782700000     0.488423230000     0.038496   
C58      C      0.910060600000     0.026930355000     0.491063300000     0.196808   
C59      C      0.927661833333     0.477722600000     0.484666975000     0.276374   
C60      C      0.835868280000     0.138015835000     0.004200340000     0.234946   
C61      C      0.667213980000     0.367954880000     0.470774680000     0.19001    
C62      C      0.801372700000     0.176113770000     0.000100015000    -0.020765   
C63      C      0.701729590000     0.329843900000     0.474571900000    -0.027904   
C64      C      0.769446353333     0.312675650000     0.477381675000    -0.079305   
C65      C      0.733655123333     0.193206950000     0.497000700000    -0.102323   
C66      C      0.736432146667     0.346274750000     0.471862150000    -0.004778   
C67      C      0.766645123333     0.159652325000     0.002633630000     0.00427    
C68      C      0.701002820000     0.278208165000     0.482558000000    -0.027246   
C69      C      0.802127460000     0.227689130000     0.491956300000    -0.079322   
C70      C      0.734290060000     0.244247840000     0.488448770000     0.02513    
C71      C      0.768837243333     0.261633550000     0.485975500000     0.026086   
N72      N      0.721274206667     0.456966850000     0.303690300000    -0.132965   
N73      N      0.783471700000     0.048304540000     0.171404600000    -0.117109   
N74      N      0.988596400000     0.005005070000     0.497245220000    -0.247075   
N75      N      0.849099953333     0.499656975000     0.478533350000    -0.268201   
O76      O      0.857307933333     0.159045280000     0.066612085000    -0.178813   
O77      O      0.980771333333     0.346226065000     0.408482850000    -0.144859   
O78      O      0.682950970000     0.395876400000     0.438473800000    -0.222406   
O79      O      0.821794966667     0.109394960000     0.036621125000    -0.2199     
O80      O      0.714217996667     0.377943900000     0.278721570000    -0.163003   
O81      O      0.790527920000     0.127327450000     0.196373375000    -0.150541   
O82      O      0.729281276667     0.035585910000     0.328766200000    -0.185364   
O83      O      0.775464633333     0.469685400000     0.146328715000    -0.177927   
O84      O      0.982285766667     0.416863750000     0.482954650000    -0.167034   
O85      O      0.855527320000     0.087943150000     0.492472915000    -0.241913   
O86      O      0.989761353333     0.094482625000     0.011084080000    -0.246864   
O87      O      0.847966333333     0.410012550000     0.465055700000    -0.310927   
O88      O      0.830354393333     0.088848710000     0.000872495000    -0.07316    
O89      O      0.672716760000     0.417108050000     0.474238275000    -0.40438    
O90      O      0.868493866667     0.155651660000     0.010039805000    -0.176886   
O91      O      0.967910686667     0.350305020000     0.465070935000    -0.134602   
F92      F      0.854368486667     0.080735600000     0.170826880000    -0.428915   
F93      F      0.983710766667     0.424535720000     0.304268050000    -0.358735   
Zn0      Zn     0.719592813333     0.471882250000     0.991860270000     0.947316   
Zn1      Zn     0.784829586667     0.031395510000     0.985462450000     0.93162    
H2       H      0.755925433333     0.097734565000     0.797213880000     0.060725   
H3       H      0.748820500000     0.407536800000     0.677881050000     0.061077   
H4       H      0.777244786667     0.129490510000     0.751345400000     0.062265   
H5       H      0.727501103333     0.375780880000     0.723749565000     0.061067   
H6       H      0.870499013333     0.116094150000     0.619778650000     0.118037   
H7       H      0.967577533333     0.389187250000     0.855312500000     0.085759   
H8       H      0.769020533333     0.088189745000     0.568903000000     0.017794   
H9       H      0.735725406667     0.417081625000     0.906191950000     0.006696   
H10      H      0.747222836667     0.056678555000     0.615222855000     0.04616    
H11      H      0.757523110000     0.448592800000     0.859872050000     0.04496    
H12      H      0.918016200000     0.400926900000     0.970501400000     0.142582   
H13      H      0.919696450000     0.103674890000     0.505388440000     0.077027   
H14      H      0.671092750000     0.408758880000     0.997065800000     0.071973   
H15      H      0.833130080000     0.095804450000     0.978639500000     0.01933    
H16      H      0.680544020000     0.087737150000     0.502623020000    -0.116887   
H17      H      0.823723426667     0.417043100000     0.973262370000     0.093531   
H18      H      0.828446556667     0.241101830000     0.989608400000     0.057385   
H19      H      0.674701896667     0.264764850000     0.984929235000     0.10632    
H20      H      0.764826216667     0.120404500000     0.508950470000    -0.002704   
H21      H      0.738203200000     0.385538350000     0.965537725000    -0.074213   
H22      H      0.795514046667     0.326795150000     0.975084650000     0.038003   
H23      H      0.707573690000     0.179077400000     0.999233485000     0.049725   
C24      C      0.670628516667     0.379442215000     0.912073200000     0.107906   
C25      C      0.834110166667     0.125832380000     0.563026400000     0.241499   
C26      C      0.723221586667     0.426132200000     0.778071350000     0.175602   
C27      C      0.781525483333     0.079140490000     0.697024540000     0.189662   
C28      C      0.731804806667     0.005373370000     0.803660450000     0.133763   
C29      C      0.772941133333     0.499897950000     0.671434475000     0.179167   
C30      C      0.744826336667     0.024237970000     0.777454250000    -0.012662   
C31      C      0.759909640000     0.481046600000     0.697641625000    -0.017001   
C32      C      0.746137883333     0.493377985000     0.750928350000     0.030972   
C33      C      0.758608073333     0.011893350000     0.724166585000     0.030287   
C34      C      0.735034830000     0.444042350000     0.751105100000    -0.045414   
C35      C      0.769711100000     0.061228970000     0.723989850000    -0.045562   
C36      C      0.756329716667     0.073275170000     0.777096550000    -0.023089   
C37      C      0.748416230000     0.431996165000     0.697998375000    -0.019848   
C38      C      0.768591156667     0.091542780000     0.750704850000    -0.002639   
C39      C      0.736154780000     0.413728550000     0.724390060000    -0.005682   
C40      C      0.831573793333     0.083781050000     0.644776075000     0.320696   
C41      C      0.673169450000     0.421500350000     0.830315050000     0.105355   
C42      C      0.843555033333     0.103164135000     0.618508025000    -0.124561   
C43      C      0.994524233333     0.402107250000     0.856586900000     0.000278   
C44      C      0.821383966667     0.104921355000     0.590764695000    -0.001327   
C45      C      0.683361946667     0.400350000000     0.884330200000     0.046875   
C46      C      0.786801633333     0.087113400000     0.589896925000    -0.030958   
C47      C      0.717944283333     0.418157950000     0.885198000000    -0.039066   
C48      C      0.774343660000     0.069018365000     0.616331295000    -0.02305    
C49      C      0.730402276667     0.436253000000     0.858763650000    -0.039894   
C50      C      0.796534490000     0.067101875000     0.644087400000    -0.00636    
C51      C      0.708208770000     0.438179500000     0.831003750000     0.059493   
C52      C      0.905535480000     0.439838380000     0.975388300000    -0.25415    
C53      C      0.932177400000     0.064784900000     0.500433205000    -0.010604   
C54      C      0.866835176667     0.450672715000     0.973041750000     0.247142   
C55      C      0.970870700000     0.053930710000     0.502865195000     0.053572   
C56      C      0.870797500000     0.037904160000     0.987231165000    -0.024849   
C57      C      0.966931720000     0.466782700000     0.988423230000     0.038496   
C58      C      0.910060600000     0.026930355000     0.991063300000     0.196808   
C59      C      0.927661833333     0.477722600000     0.984666975000     0.276374   
C60      C      0.835868280000     0.138015835000     0.504200340000     0.234946   
C61      C      0.667213980000     0.367954880000     0.970774680000     0.19001    
C62      C      0.801372700000     0.176113770000     0.500100015000    -0.020765   
C63      C      0.701729590000     0.329843900000     0.974571900000    -0.027904   
C64      C      0.769446353333     0.312675650000     0.977381675000    -0.079305   
C65      C      0.733655123333     0.193206950000     0.997000700000    -0.102323   
C66      C      0.736432146667     0.346274750000     0.971862150000    -0.004778   
C67      C      0.766645123333     0.159652325000     0.502633630000     0.00427    
C68      C      0.701002820000     0.278208165000     0.982558000000    -0.027246   
C69      C      0.802127460000     0.227689130000     0.991956300000    -0.079322   
C70      C      0.734290060000     0.244247840000     0.988448770000     0.02513    
C71      C      0.768837243333     0.261633550000     0.985975500000     0.026086   
N72      N      0.721274206667     0.456966850000     0.803690300000    -0.132965   
N73      N      0.783471700000     0.048304540000     0.671404600000    -0.117109   
N74      N      0.988596400000     0.005005070000     0.997245220000    -0.247075   
N75      N      0.849099953333     0.499656975000     0.978533350000    -0.268201   
O76      O      0.857307933333     0.159045280000     0.566612085000    -0.178813   
O77      O      0.980771333333     0.346226065000     0.908482850000    -0.144859   
O78      O      0.682950970000     0.395876400000     0.938473800000    -0.222406   
O79      O      0.821794966667     0.109394960000     0.536621125000    -0.2199     
O80      O      0.714217996667     0.377943900000     0.778721570000    -0.163003   
O81      O      0.790527920000     0.127327450000     0.696373375000    -0.150541   
O82      O      0.729281276667     0.035585910000     0.828766200000    -0.185364   
O83      O      0.775464633333     0.469685400000     0.646328715000    -0.177927   
O84      O      0.982285766667     0.416863750000     0.982954650000    -0.167034   
O85      O      0.855527320000     0.087943150000     0.992472915000    -0.241913   
O86      O      0.989761353333     0.094482625000     0.511084080000    -0.246864   
O87      O      0.847966333333     0.410012550000     0.965055700000    -0.310927   
O88      O      0.830354393333     0.088848710000     0.500872495000    -0.07316    
O89      O      0.672716760000     0.417108050000     0.974238275000    -0.40438    
O90      O      0.868493866667     0.155651660000     0.510039805000    -0.176886   
O91      O      0.967910686667     0.350305020000     0.965070935000    -0.134602   
F92      F      0.854368486667     0.080735600000     0.670826880000    -0.428915   
F93      F      0.983710766667     0.424535720000     0.804268050000    -0.358735   
Zn0      Zn     0.719592813333     0.971882250000     0.491860270000     0.947316   
Zn1      Zn     0.784829586667     0.531395510000     0.485462450000     0.93162    
H2       H      0.755925433333     0.597734565000     0.297213880000     0.060725   
H3       H      0.748820500000     0.907536800000     0.177881050000     0.061077   
H4       H      0.777244786667     0.629490510000     0.251345400000     0.062265   
H5       H      0.727501103333     0.875780880000     0.223749565000     0.061067   
H6       H      0.870499013333     0.616094150000     0.119778650000     0.118037   
H7       H      0.967577533333     0.889187250000     0.355312500000     0.085759   
H8       H      0.769020533333     0.588189745000     0.068903000000     0.017794   
H9       H      0.735725406667     0.917081625000     0.406191950000     0.006696   
H10      H      0.747222836667     0.556678555000     0.115222855000     0.04616    
H11      H      0.757523110000     0.948592800000     0.359872050000     0.04496    
H12      H      0.918016200000     0.900926900000     0.470501400000     0.142582   
H13      H      0.919696450000     0.603674890000     0.005388440000     0.077027   
H14      H      0.671092750000     0.908758880000     0.497065800000     0.071973   
H15      H      0.833130080000     0.595804450000     0.478639500000     0.01933    
H16      H      0.680544020000     0.587737150000     0.002623020000    -0.116887   
H17      H      0.823723426667     0.917043100000     0.473262370000     0.093531   
H18      H      0.828446556667     0.741101830000     0.489608400000     0.057385   
H19      H      0.674701896667     0.764764850000     0.484929235000     0.10632    
H20      H      0.764826216667     0.620404500000     0.008950470000    -0.002704   
H21      H      0.738203200000     0.885538350000     0.465537725000    -0.074213   
H22      H      0.795514046667     0.826795150000     0.475084650000     0.038003   
H23      H      0.707573690000     0.679077400000     0.499233485000     0.049725   
C24      C      0.670628516667     0.879442215000     0.412073200000     0.107906   
C25      C      0.834110166667     0.625832380000     0.063026400000     0.241499   
C26      C      0.723221586667     0.926132200000     0.278071350000     0.175602   
C27      C      0.781525483333     0.579140490000     0.197024540000     0.189662   
C28      C      0.731804806667     0.505373370000     0.303660450000     0.133763   
C29      C      0.772941133333     0.999897950000     0.171434475000     0.179167   
C30      C      0.744826336667     0.524237970000     0.277454250000    -0.012662   
C31      C      0.759909640000     0.981046600000     0.197641625000    -0.017001   
C32      C      0.746137883333     0.993377985000     0.250928350000     0.030972   
C33      C      0.758608073333     0.511893350000     0.224166585000     0.030287   
C34      C      0.735034830000     0.944042350000     0.251105100000    -0.045414   
C35      C      0.769711100000     0.561228970000     0.223989850000    -0.045562   
C36      C      0.756329716667     0.573275170000     0.277096550000    -0.023089   
C37      C      0.748416230000     0.931996165000     0.197998375000    -0.019848   
C38      C      0.768591156667     0.591542780000     0.250704850000    -0.002639   
C39      C      0.736154780000     0.913728550000     0.224390060000    -0.005682   
C40      C      0.831573793333     0.583781050000     0.144776075000     0.320696   
C41      C      0.673169450000     0.921500350000     0.330315050000     0.105355   
C42      C      0.843555033333     0.603164135000     0.118508025000    -0.124561   
C43      C      0.994524233333     0.902107250000     0.356586900000     0.000278   
C44      C      0.821383966667     0.604921355000     0.090764695000    -0.001327   
C45      C      0.683361946667     0.900350000000     0.384330200000     0.046875   
C46      C      0.786801633333     0.587113400000     0.089896925000    -0.030958   
C47      C      0.717944283333     0.918157950000     0.385198000000    -0.039066   
C48      C      0.774343660000     0.569018365000     0.116331295000    -0.02305    
C49      C      0.730402276667     0.936253000000     0.358763650000    -0.039894   
C50      C      0.796534490000     0.567101875000     0.144087400000    -0.00636    
C51      C      0.708208770000     0.938179500000     0.331003750000     0.059493   
C52      C      0.905535480000     0.939838380000     0.475388300000    -0.25415    
C53      C      0.932177400000     0.564784900000     0.000433205000    -0.010604   
C54      C      0.866835176667     0.950672715000     0.473041750000     0.247142   
C55      C      0.970870700000     0.553930710000     0.002865195000     0.053572   
C56      C      0.870797500000     0.537904160000     0.487231165000    -0.024849   
C57      C      0.966931720000     0.966782700000     0.488423230000     0.038496   
C58      C      0.910060600000     0.526930355000     0.491063300000     0.196808   
C59      C      0.927661833333     0.977722600000     0.484666975000     0.276374   
C60      C      0.835868280000     0.638015835000     0.004200340000     0.234946   
C61      C      0.667213980000     0.867954880000     0.470774680000     0.19001    
C62      C      0.801372700000     0.676113770000     0.000100015000    -0.020765   
C63      C      0.701729590000     0.829843900000     0.474571900000    -0.027904   
C64      C      0.769446353333     0.812675650000     0.477381675000    -0.079305   
C65      C      0.733655123333     0.693206950000     0.497000700000    -0.102323   
C66      C      0.736432146667     0.846274750000     0.471862150000    -0.004778   
C67      C      0.766645123333     0.659652325000     0.002633630000     0.00427    
C68      C      0.701002820000     0.778208165000     0.482558000000    -0.027246   
C69      C      0.802127460000     0.727689130000     0.491956300000    -0.079322   
C70      C      0.734290060000     0.744247840000     0.488448770000     0.02513    
C71      C      0.768837243333     0.761633550000     0.485975500000     0.026086   
N72      N      0.721274206667     0.956966850000     0.303690300000    -0.132965   
N73      N      0.783471700000     0.548304540000     0.171404600000    -0.117109   
N74      N      0.988596400000     0.505005070000     0.497245220000    -0.247075   
N75      N      0.849099953333     0.999656975000     0.478533350000    -0.268201   
O76      O      0.857307933333     0.659045280000     0.066612085000    -0.178813   
O77      O      0.980771333333     0.846226065000     0.408482850000    -0.144859   
O78      O      0.682950970000     0.895876400000     0.438473800000    -0.222406   
O79      O      0.821794966667     0.609394960000     0.036621125000    -0.2199     
O80      O      0.714217996667     0.877943900000     0.278721570000    -0.163003   
O81      O      0.790527920000     0.627327450000     0.196373375000    -0.150541   
O82      O      0.729281276667     0.535585910000     0.328766200000    -0.185364   
O83      O      0.775464633333     0.969685400000     0.146328715000    -0.177927   
O84      O      0.982285766667     0.916863750000     0.482954650000    -0.167034   
O85      O      0.855527320000     0.587943150000     0.492472915000    -0.241913   
O86      O      0.989761353333     0.594482625000     0.011084080000    -0.246864   
O87      O      0.847966333333     0.910012550000     0.465055700000    -0.310927   
O88      O      0.830354393333     0.588848710000     0.000872495000    -0.07316    
O89      O      0.672716760000     0.917108050000     0.474238275000    -0.40438    
O90      O      0.868493866667     0.655651660000     0.010039805000    -0.176886   
O91      O      0.967910686667     0.850305020000     0.465070935000    -0.134602   
F92      F      0.854368486667     0.580735600000     0.170826880000    -0.428915   
F93      F      0.983710766667     0.924535720000     0.304268050000    -0.358735   
Zn0      Zn     0.719592813333     0.971882250000     0.991860270000     0.947316   
Zn1      Zn     0.784829586667     0.531395510000     0.985462450000     0.93162    
H2       H      0.755925433333     0.597734565000     0.797213880000     0.060725   
H3       H      0.748820500000     0.907536800000     0.677881050000     0.061077   
H4       H      0.777244786667     0.629490510000     0.751345400000     0.062265   
H5       H      0.727501103333     0.875780880000     0.723749565000     0.061067   
H6       H      0.870499013333     0.616094150000     0.619778650000     0.118037   
H7       H      0.967577533333     0.889187250000     0.855312500000     0.085759   
H8       H      0.769020533333     0.588189745000     0.568903000000     0.017794   
H9       H      0.735725406667     0.917081625000     0.906191950000     0.006696   
H10      H      0.747222836667     0.556678555000     0.615222855000     0.04616    
H11      H      0.757523110000     0.948592800000     0.859872050000     0.04496    
H12      H      0.918016200000     0.900926900000     0.970501400000     0.142582   
H13      H      0.919696450000     0.603674890000     0.505388440000     0.077027   
H14      H      0.671092750000     0.908758880000     0.997065800000     0.071973   
H15      H      0.833130080000     0.595804450000     0.978639500000     0.01933    
H16      H      0.680544020000     0.587737150000     0.502623020000    -0.116887   
H17      H      0.823723426667     0.917043100000     0.973262370000     0.093531   
H18      H      0.828446556667     0.741101830000     0.989608400000     0.057385   
H19      H      0.674701896667     0.764764850000     0.984929235000     0.10632    
H20      H      0.764826216667     0.620404500000     0.508950470000    -0.002704   
H21      H      0.738203200000     0.885538350000     0.965537725000    -0.074213   
H22      H      0.795514046667     0.826795150000     0.975084650000     0.038003   
H23      H      0.707573690000     0.679077400000     0.999233485000     0.049725   
C24      C      0.670628516667     0.879442215000     0.912073200000     0.107906   
C25      C      0.834110166667     0.625832380000     0.563026400000     0.241499   
C26      C      0.723221586667     0.926132200000     0.778071350000     0.175602   
C27      C      0.781525483333     0.579140490000     0.697024540000     0.189662   
C28      C      0.731804806667     0.505373370000     0.803660450000     0.133763   
C29      C      0.772941133333     0.999897950000     0.671434475000     0.179167   
C30      C      0.744826336667     0.524237970000     0.777454250000    -0.012662   
C31      C      0.759909640000     0.981046600000     0.697641625000    -0.017001   
C32      C      0.746137883333     0.993377985000     0.750928350000     0.030972   
C33      C      0.758608073333     0.511893350000     0.724166585000     0.030287   
C34      C      0.735034830000     0.944042350000     0.751105100000    -0.045414   
C35      C      0.769711100000     0.561228970000     0.723989850000    -0.045562   
C36      C      0.756329716667     0.573275170000     0.777096550000    -0.023089   
C37      C      0.748416230000     0.931996165000     0.697998375000    -0.019848   
C38      C      0.768591156667     0.591542780000     0.750704850000    -0.002639   
C39      C      0.736154780000     0.913728550000     0.724390060000    -0.005682   
C40      C      0.831573793333     0.583781050000     0.644776075000     0.320696   
C41      C      0.673169450000     0.921500350000     0.830315050000     0.105355   
C42      C      0.843555033333     0.603164135000     0.618508025000    -0.124561   
C43      C      0.994524233333     0.902107250000     0.856586900000     0.000278   
C44      C      0.821383966667     0.604921355000     0.590764695000    -0.001327   
C45      C      0.683361946667     0.900350000000     0.884330200000     0.046875   
C46      C      0.786801633333     0.587113400000     0.589896925000    -0.030958   
C47      C      0.717944283333     0.918157950000     0.885198000000    -0.039066   
C48      C      0.774343660000     0.569018365000     0.616331295000    -0.02305    
C49      C      0.730402276667     0.936253000000     0.858763650000    -0.039894   
C50      C      0.796534490000     0.567101875000     0.644087400000    -0.00636    
C51      C      0.708208770000     0.938179500000     0.831003750000     0.059493   
C52      C      0.905535480000     0.939838380000     0.975388300000    -0.25415    
C53      C      0.932177400000     0.564784900000     0.500433205000    -0.010604   
C54      C      0.866835176667     0.950672715000     0.973041750000     0.247142   
C55      C      0.970870700000     0.553930710000     0.502865195000     0.053572   
C56      C      0.870797500000     0.537904160000     0.987231165000    -0.024849   
C57      C      0.966931720000     0.966782700000     0.988423230000     0.038496   
C58      C      0.910060600000     0.526930355000     0.991063300000     0.196808   
C59      C      0.927661833333     0.977722600000     0.984666975000     0.276374   
C60      C      0.835868280000     0.638015835000     0.504200340000     0.234946   
C61      C      0.667213980000     0.867954880000     0.970774680000     0.19001    
C62      C      0.801372700000     0.676113770000     0.500100015000    -0.020765   
C63      C      0.701729590000     0.829843900000     0.974571900000    -0.027904   
C64      C      0.769446353333     0.812675650000     0.977381675000    -0.079305   
C65      C      0.733655123333     0.693206950000     0.997000700000    -0.102323   
C66      C      0.736432146667     0.846274750000     0.971862150000    -0.004778   
C67      C      0.766645123333     0.659652325000     0.502633630000     0.00427    
C68      C      0.701002820000     0.778208165000     0.982558000000    -0.027246   
C69      C      0.802127460000     0.727689130000     0.991956300000    -0.079322   
C70      C      0.734290060000     0.744247840000     0.988448770000     0.02513    
C71      C      0.768837243333     0.761633550000     0.985975500000     0.026086   
N72      N      0.721274206667     0.956966850000     0.803690300000    -0.132965   
N73      N      0.783471700000     0.548304540000     0.671404600000    -0.117109   
N74      N      0.988596400000     0.505005070000     0.997245220000    -0.247075   
N75      N      0.849099953333     0.999656975000     0.978533350000    -0.268201   
O76      O      0.857307933333     0.659045280000     0.566612085000    -0.178813   
O77      O      0.980771333333     0.846226065000     0.908482850000    -0.144859   
O78      O      0.682950970000     0.895876400000     0.938473800000    -0.222406   
O79      O      0.821794966667     0.609394960000     0.536621125000    -0.2199     
O80      O      0.714217996667     0.877943900000     0.778721570000    -0.163003   
O81      O      0.790527920000     0.627327450000     0.696373375000    -0.150541   
O82      O      0.729281276667     0.535585910000     0.828766200000    -0.185364   
O83      O      0.775464633333     0.969685400000     0.646328715000    -0.177927   
O84      O      0.982285766667     0.916863750000     0.982954650000    -0.167034   
O85      O      0.855527320000     0.587943150000     0.992472915000    -0.241913   
O86      O      0.989761353333     0.594482625000     0.511084080000    -0.246864   
O87      O      0.847966333333     0.910012550000     0.965055700000    -0.310927   
O88      O      0.830354393333     0.588848710000     0.500872495000    -0.07316    
O89      O      0.672716760000     0.917108050000     0.974238275000    -0.40438    
O90      O      0.868493866667     0.655651660000     0.510039805000    -0.176886   
O91      O      0.967910686667     0.850305020000     0.965070935000    -0.134602   
F92      F      0.854368486667     0.580735600000     0.670826880000    -0.428915   
F93      F      0.983710766667     0.924535720000     0.804268050000    -0.358735   


