data_sample_5_relaxed_charged

_audit_creation_method RASPA-1.0
_audit_creation_date 2026-2-5
_audit_author_name ''

_cell_length_a    21.9945
_cell_length_b    22.1871
_cell_length_c    22.2416
_cell_angle_alpha 65.9378
_cell_angle_beta  62.1413
_cell_angle_gamma 80.7282
_cell_volume      70049.5

_symmetry_cell_setting          triclinic
_symmetry_space_group_name_Hall 'P 1'
_symmetry_space_group_name_H-M  'P 1'
_symmetry_Int_Tables_number     1

_symmetry_equiv_pos_as_xyz 'x,y,z'

loop_
_atom_site_label
_atom_site_type_symbol
_atom_site_fract_x
_atom_site_fract_y
_atom_site_fract_z
_atom_site_charge
Zn0      Zn     0.137688490000     0.267249165000     0.057920185000     0.01871    
Zn0      Zn     0.137688490000     0.267249165000     0.557920185000     0.01871    
Zn0      Zn     0.137688490000     0.767249165000     0.057920185000     0.01871    
Zn0      Zn     0.137688490000     0.767249165000     0.557920185000     0.01871    
Zn0      Zn     0.637688490000     0.267249165000     0.057920185000     0.01871    
Zn0      Zn     0.637688490000     0.267249165000     0.557920185000     0.01871    
Zn0      Zn     0.637688490000     0.767249165000     0.057920185000     0.01871    
Zn0      Zn     0.637688490000     0.767249165000     0.557920185000     0.01871    
Zn1      Zn     0.103556045000     0.206532540000     0.063594260000     0.018147   
Zn1      Zn     0.103556045000     0.206532540000     0.563594260000     0.018147   
Zn1      Zn     0.103556045000     0.706532540000     0.063594260000     0.018147   
Zn1      Zn     0.103556045000     0.706532540000     0.563594260000     0.018147   
Zn1      Zn     0.603556045000     0.206532540000     0.063594260000     0.018147   
Zn1      Zn     0.603556045000     0.206532540000     0.563594260000     0.018147   
Zn1      Zn     0.603556045000     0.706532540000     0.063594260000     0.018147   
Zn1      Zn     0.603556045000     0.706532540000     0.563594260000     0.018147   
Zn2      Zn     0.173950300000     0.197911750000     0.068790785000     0.034803   
Zn2      Zn     0.173950300000     0.197911750000     0.568790785000     0.034803   
Zn2      Zn     0.173950300000     0.697911750000     0.068790785000     0.034803   
Zn2      Zn     0.173950300000     0.697911750000     0.568790785000     0.034803   
Zn2      Zn     0.673950300000     0.197911750000     0.068790785000     0.034803   
Zn2      Zn     0.673950300000     0.197911750000     0.568790785000     0.034803   
Zn2      Zn     0.673950300000     0.697911750000     0.068790785000     0.034803   
Zn2      Zn     0.673950300000     0.697911750000     0.568790785000     0.034803   
Zn3      Zn     0.105894950000     0.206772900000     0.134071515000     0.026226   
Zn3      Zn     0.105894950000     0.206772900000     0.634071515000     0.026226   
Zn3      Zn     0.105894950000     0.706772900000     0.134071515000     0.026226   
Zn3      Zn     0.105894950000     0.706772900000     0.634071515000     0.026226   
Zn3      Zn     0.605894950000     0.206772900000     0.134071515000     0.026226   
Zn3      Zn     0.605894950000     0.206772900000     0.634071515000     0.026226   
Zn3      Zn     0.605894950000     0.706772900000     0.134071515000     0.026226   
Zn3      Zn     0.605894950000     0.706772900000     0.634071515000     0.026226   
Zn4      Zn     0.413182320000     0.474309000000     0.345667250000     0.731756   
Zn4      Zn     0.413182320000     0.474309000000     0.845667250000     0.731756   
Zn4      Zn     0.413182320000     0.974309000000     0.345667250000     0.731756   
Zn4      Zn     0.413182320000     0.974309000000     0.845667250000     0.731756   
Zn4      Zn     0.913182320000     0.474309000000     0.345667250000     0.731756   
Zn4      Zn     0.913182320000     0.474309000000     0.845667250000     0.731756   
Zn4      Zn     0.913182320000     0.974309000000     0.345667250000     0.731756   
Zn4      Zn     0.913182320000     0.974309000000     0.845667250000     0.731756   
Zn5      Zn     0.388807415000     0.429524050000     0.327037800000     0.1326     
Zn5      Zn     0.388807415000     0.429524050000     0.827037800000     0.1326     
Zn5      Zn     0.388807415000     0.929524050000     0.327037800000     0.1326     
Zn5      Zn     0.388807415000     0.929524050000     0.827037800000     0.1326     
Zn5      Zn     0.888807415000     0.429524050000     0.327037800000     0.1326     
Zn5      Zn     0.888807415000     0.429524050000     0.827037800000     0.1326     
Zn5      Zn     0.888807415000     0.929524050000     0.327037800000     0.1326     
Zn5      Zn     0.888807415000     0.929524050000     0.827037800000     0.1326     
Zn6      Zn     0.335554780000     0.471618115000     0.367215150000    -0.009373   
Zn6      Zn     0.335554780000     0.471618115000     0.867215150000    -0.009373   
Zn6      Zn     0.335554780000     0.971618115000     0.367215150000    -0.009373   
Zn6      Zn     0.335554780000     0.971618115000     0.867215150000    -0.009373   
Zn6      Zn     0.835554780000     0.471618115000     0.367215150000    -0.009373   
Zn6      Zn     0.835554780000     0.471618115000     0.867215150000    -0.009373   
Zn6      Zn     0.835554780000     0.971618115000     0.367215150000    -0.009373   
Zn6      Zn     0.835554780000     0.971618115000     0.867215150000    -0.009373   
Zn7      Zn     0.383441200000     0.004775225000     0.289215400000     0.0034     
Zn7      Zn     0.383441200000     0.004775225000     0.789215400000     0.0034     
Zn7      Zn     0.383441200000     0.504775225000     0.289215400000     0.0034     
Zn7      Zn     0.383441200000     0.504775225000     0.789215400000     0.0034     
Zn7      Zn     0.883441200000     0.004775225000     0.289215400000     0.0034     
Zn7      Zn     0.883441200000     0.004775225000     0.789215400000     0.0034     
Zn7      Zn     0.883441200000     0.504775225000     0.289215400000     0.0034     
Zn7      Zn     0.883441200000     0.504775225000     0.789215400000     0.0034     
H8       H      0.229786025000     0.081310510000     0.208624650000     0.081842   
H8       H      0.229786025000     0.081310510000     0.708624650000     0.081842   
H8       H      0.229786025000     0.581310510000     0.208624650000     0.081842   
H8       H      0.229786025000     0.581310510000     0.708624650000     0.081842   
H8       H      0.729786025000     0.081310510000     0.208624650000     0.081842   
H8       H      0.729786025000     0.081310510000     0.708624650000     0.081842   
H8       H      0.729786025000     0.581310510000     0.208624650000     0.081842   
H8       H      0.729786025000     0.581310510000     0.708624650000     0.081842   
H9       H      0.243995085000     0.174820915000     0.233476670000     0.056399   
H9       H      0.243995085000     0.174820915000     0.733476670000     0.056399   
H9       H      0.243995085000     0.674820915000     0.233476670000     0.056399   
H9       H      0.243995085000     0.674820915000     0.733476670000     0.056399   
H9       H      0.743995085000     0.174820915000     0.233476670000     0.056399   
H9       H      0.743995085000     0.174820915000     0.733476670000     0.056399   
H9       H      0.743995085000     0.674820915000     0.233476670000     0.056399   
H9       H      0.743995085000     0.674820915000     0.733476670000     0.056399   
H10      H      0.293269600000     0.106756060000     0.191708400000     0.062507   
H10      H      0.293269600000     0.106756060000     0.691708400000     0.062507   
H10      H      0.293269600000     0.606756060000     0.191708400000     0.062507   
H10      H      0.293269600000     0.606756060000     0.691708400000     0.062507   
H10      H      0.793269600000     0.106756060000     0.191708400000     0.062507   
H10      H      0.793269600000     0.106756060000     0.691708400000     0.062507   
H10      H      0.793269600000     0.606756060000     0.191708400000     0.062507   
H10      H      0.793269600000     0.606756060000     0.691708400000     0.062507   
H11      H      0.179837450000     0.149720565000     0.249527735000    -0.087159   
H11      H      0.179837450000     0.149720565000     0.749527735000    -0.087159   
H11      H      0.179837450000     0.649720565000     0.249527735000    -0.087159   
H11      H      0.179837450000     0.649720565000     0.749527735000    -0.087159   
H11      H      0.679837450000     0.149720565000     0.249527735000    -0.087159   
H11      H      0.679837450000     0.149720565000     0.749527735000    -0.087159   
H11      H      0.679837450000     0.649720565000     0.249527735000    -0.087159   
H11      H      0.679837450000     0.649720565000     0.749527735000    -0.087159   
H12      H      0.200983600000     0.084507950000     0.278979630000    -2.32579    
H12      H      0.200983600000     0.084507950000     0.778979630000    -2.32579    
H12      H      0.200983600000     0.584507950000     0.278979630000    -2.32579    
H12      H      0.200983600000     0.584507950000     0.778979630000    -2.32579    
H12      H      0.700983600000     0.084507950000     0.278979630000    -2.32579    
H12      H      0.700983600000     0.084507950000     0.778979630000    -2.32579    
H12      H      0.700983600000     0.584507950000     0.278979630000    -2.32579    
H12      H      0.700983600000     0.584507950000     0.778979630000    -2.32579    
H13      H      0.272459120000     0.171802415000     0.162518100000     0.059083   
H13      H      0.272459120000     0.171802415000     0.662518100000     0.059083   
H13      H      0.272459120000     0.671802415000     0.162518100000     0.059083   
H13      H      0.272459120000     0.671802415000     0.662518100000     0.059083   
H13      H      0.772459120000     0.171802415000     0.162518100000     0.059083   
H13      H      0.772459120000     0.171802415000     0.662518100000     0.059083   
H13      H      0.772459120000     0.671802415000     0.162518100000     0.059083   
H13      H      0.772459120000     0.671802415000     0.662518100000     0.059083   
H14      H      0.146154950000     0.119938450000     0.151715665000     0.091826   
H14      H      0.146154950000     0.119938450000     0.651715665000     0.091826   
H14      H      0.146154950000     0.619938450000     0.151715665000     0.091826   
H14      H      0.146154950000     0.619938450000     0.651715665000     0.091826   
H14      H      0.646154950000     0.119938450000     0.151715665000     0.091826   
H14      H      0.646154950000     0.119938450000     0.651715665000     0.091826   
H14      H      0.646154950000     0.619938450000     0.151715665000     0.091826   
H14      H      0.646154950000     0.619938450000     0.651715665000     0.091826   
H15      H      0.352548035000     0.091212990000     0.270022800000    -0.039524   
H15      H      0.352548035000     0.091212990000     0.770022800000    -0.039524   
H15      H      0.352548035000     0.591212990000     0.270022800000    -0.039524   
H15      H      0.352548035000     0.591212990000     0.770022800000    -0.039524   
H15      H      0.852548035000     0.091212990000     0.270022800000    -0.039524   
H15      H      0.852548035000     0.091212990000     0.770022800000    -0.039524   
H15      H      0.852548035000     0.591212990000     0.270022800000    -0.039524   
H15      H      0.852548035000     0.591212990000     0.770022800000    -0.039524   
H16      H      0.272436100000     0.156572950000     0.080234980000     0.00891    
H16      H      0.272436100000     0.156572950000     0.580234980000     0.00891    
H16      H      0.272436100000     0.656572950000     0.080234980000     0.00891    
H16      H      0.272436100000     0.656572950000     0.580234980000     0.00891    
H16      H      0.772436100000     0.156572950000     0.080234980000     0.00891    
H16      H      0.772436100000     0.156572950000     0.580234980000     0.00891    
H16      H      0.772436100000     0.656572950000     0.080234980000     0.00891    
H16      H      0.772436100000     0.656572950000     0.580234980000     0.00891    
H17      H      0.256784150000     0.185612485000     0.103249035000     0.034099   
H17      H      0.256784150000     0.185612485000     0.603249035000     0.034099   
H17      H      0.256784150000     0.685612485000     0.103249035000     0.034099   
H17      H      0.256784150000     0.685612485000     0.603249035000     0.034099   
H17      H      0.756784150000     0.185612485000     0.103249035000     0.034099   
H17      H      0.756784150000     0.185612485000     0.603249035000     0.034099   
H17      H      0.756784150000     0.685612485000     0.103249035000     0.034099   
H17      H      0.756784150000     0.685612485000     0.603249035000     0.034099   
H18      H      0.288379500000     0.231551690000     0.044438860000    -0.053405   
H18      H      0.288379500000     0.231551690000     0.544438860000    -0.053405   
H18      H      0.288379500000     0.731551690000     0.044438860000    -0.053405   
H18      H      0.288379500000     0.731551690000     0.544438860000    -0.053405   
H18      H      0.788379500000     0.231551690000     0.044438860000    -0.053405   
H18      H      0.788379500000     0.231551690000     0.544438860000    -0.053405   
H18      H      0.788379500000     0.731551690000     0.044438860000    -0.053405   
H18      H      0.788379500000     0.731551690000     0.544438860000    -0.053405   
H19      H      0.316660950000     0.199399575000     0.055739520000     0.057451   
H19      H      0.316660950000     0.199399575000     0.555739520000     0.057451   
H19      H      0.316660950000     0.699399575000     0.055739520000     0.057451   
H19      H      0.316660950000     0.699399575000     0.555739520000     0.057451   
H19      H      0.816660950000     0.199399575000     0.055739520000     0.057451   
H19      H      0.816660950000     0.199399575000     0.555739520000     0.057451   
H19      H      0.816660950000     0.699399575000     0.055739520000     0.057451   
H19      H      0.816660950000     0.699399575000     0.555739520000     0.057451   
H20      H      0.304328320000     0.203177200000     0.020981750000     0.001524   
H20      H      0.304328320000     0.203177200000     0.520981750000     0.001524   
H20      H      0.304328320000     0.703177200000     0.020981750000     0.001524   
H20      H      0.304328320000     0.703177200000     0.520981750000     0.001524   
H20      H      0.804328320000     0.203177200000     0.020981750000     0.001524   
H20      H      0.804328320000     0.203177200000     0.520981750000     0.001524   
H20      H      0.804328320000     0.703177200000     0.020981750000     0.001524   
H20      H      0.804328320000     0.703177200000     0.520981750000     0.001524   
H21      H      0.232126010000     0.044586530000     0.321225165000     0.030668   
H21      H      0.232126010000     0.044586530000     0.821225165000     0.030668   
H21      H      0.232126010000     0.544586530000     0.321225165000     0.030668   
H21      H      0.232126010000     0.544586530000     0.821225165000     0.030668   
H21      H      0.732126010000     0.044586530000     0.321225165000     0.030668   
H21      H      0.732126010000     0.044586530000     0.821225165000     0.030668   
H21      H      0.732126010000     0.544586530000     0.321225165000     0.030668   
H21      H      0.732126010000     0.544586530000     0.821225165000     0.030668   
H22      H      0.229602590000     0.064469935000     0.351243500000     0.052825   
H22      H      0.229602590000     0.064469935000     0.851243500000     0.052825   
H22      H      0.229602590000     0.564469935000     0.351243500000     0.052825   
H22      H      0.229602590000     0.564469935000     0.851243500000     0.052825   
H22      H      0.729602590000     0.064469935000     0.351243500000     0.052825   
H22      H      0.729602590000     0.064469935000     0.851243500000     0.052825   
H22      H      0.729602590000     0.564469935000     0.351243500000     0.052825   
H22      H      0.729602590000     0.564469935000     0.851243500000     0.052825   
H23      H      0.191158325000     0.019472170000     0.405237650000     0.004677   
H23      H      0.191158325000     0.019472170000     0.905237650000     0.004677   
H23      H      0.191158325000     0.519472170000     0.405237650000     0.004677   
H23      H      0.191158325000     0.519472170000     0.905237650000     0.004677   
H23      H      0.691158325000     0.019472170000     0.405237650000     0.004677   
H23      H      0.691158325000     0.019472170000     0.905237650000     0.004677   
H23      H      0.691158325000     0.519472170000     0.405237650000     0.004677   
H23      H      0.691158325000     0.519472170000     0.905237650000     0.004677   
H24      H      0.174507735000     0.036460520000     0.371776670000     0.140546   
H24      H      0.174507735000     0.036460520000     0.871776670000     0.140546   
H24      H      0.174507735000     0.536460520000     0.371776670000     0.140546   
H24      H      0.174507735000     0.536460520000     0.871776670000     0.140546   
H24      H      0.674507735000     0.036460520000     0.371776670000     0.140546   
H24      H      0.674507735000     0.036460520000     0.871776670000     0.140546   
H24      H      0.674507735000     0.536460520000     0.371776670000     0.140546   
H24      H      0.674507735000     0.536460520000     0.871776670000     0.140546   
H25      H      0.195557685000     0.497448830000     0.377019250000    -0.412045   
H25      H      0.195557685000     0.497448830000     0.877019250000    -0.412045   
H25      H      0.195557685000     0.997448830000     0.377019250000    -0.412045   
H25      H      0.195557685000     0.997448830000     0.877019250000    -0.412045   
H25      H      0.695557685000     0.497448830000     0.377019250000    -0.412045   
H25      H      0.695557685000     0.497448830000     0.877019250000    -0.412045   
H25      H      0.695557685000     0.997448830000     0.377019250000    -0.412045   
H25      H      0.695557685000     0.997448830000     0.877019250000    -0.412045   
H26      H      0.199946180000     0.138434990000     0.480010180000     0.626075   
H26      H      0.199946180000     0.138434990000     0.980010180000     0.626075   
H26      H      0.199946180000     0.638434990000     0.480010180000     0.626075   
H26      H      0.199946180000     0.638434990000     0.980010180000     0.626075   
H26      H      0.699946180000     0.138434990000     0.480010180000     0.626075   
H26      H      0.699946180000     0.138434990000     0.980010180000     0.626075   
H26      H      0.699946180000     0.638434990000     0.480010180000     0.626075   
H26      H      0.699946180000     0.638434990000     0.980010180000     0.626075   
H27      H      0.323248200000     0.056039780000     0.426846535000    -0.914551   
H27      H      0.323248200000     0.056039780000     0.926846535000    -0.914551   
H27      H      0.323248200000     0.556039780000     0.426846535000    -0.914551   
H27      H      0.323248200000     0.556039780000     0.926846535000    -0.914551   
H27      H      0.823248200000     0.056039780000     0.426846535000    -0.914551   
H27      H      0.823248200000     0.056039780000     0.926846535000    -0.914551   
H27      H      0.823248200000     0.556039780000     0.426846535000    -0.914551   
H27      H      0.823248200000     0.556039780000     0.926846535000    -0.914551   
H28      H      0.167973785000     0.157756580000     0.031190155000     0.046506   
H28      H      0.167973785000     0.157756580000     0.531190155000     0.046506   
H28      H      0.167973785000     0.657756580000     0.031190155000     0.046506   
H28      H      0.167973785000     0.657756580000     0.531190155000     0.046506   
H28      H      0.667973785000     0.157756580000     0.031190155000     0.046506   
H28      H      0.667973785000     0.157756580000     0.531190155000     0.046506   
H28      H      0.667973785000     0.657756580000     0.031190155000     0.046506   
H28      H      0.667973785000     0.657756580000     0.531190155000     0.046506   
H29      H      0.354395775000     0.041277245000     0.373348150000     0.049718   
H29      H      0.354395775000     0.041277245000     0.873348150000     0.049718   
H29      H      0.354395775000     0.541277245000     0.373348150000     0.049718   
H29      H      0.354395775000     0.541277245000     0.873348150000     0.049718   
H29      H      0.854395775000     0.041277245000     0.373348150000     0.049718   
H29      H      0.854395775000     0.041277245000     0.873348150000     0.049718   
H29      H      0.854395775000     0.541277245000     0.373348150000     0.049718   
H29      H      0.854395775000     0.541277245000     0.873348150000     0.049718   
H30      H      0.229751050000     0.091072025000     0.108164610000     0.043987   
H30      H      0.229751050000     0.091072025000     0.608164610000     0.043987   
H30      H      0.229751050000     0.591072025000     0.108164610000     0.043987   
H30      H      0.229751050000     0.591072025000     0.608164610000     0.043987   
H30      H      0.729751050000     0.091072025000     0.108164610000     0.043987   
H30      H      0.729751050000     0.091072025000     0.608164610000     0.043987   
H30      H      0.729751050000     0.591072025000     0.108164610000     0.043987   
H30      H      0.729751050000     0.591072025000     0.608164610000     0.043987   
H31      H      0.201921060000     0.037672060000     0.148118800000     0.038161   
H31      H      0.201921060000     0.037672060000     0.648118800000     0.038161   
H31      H      0.201921060000     0.537672060000     0.148118800000     0.038161   
H31      H      0.201921060000     0.537672060000     0.648118800000     0.038161   
H31      H      0.701921060000     0.037672060000     0.148118800000     0.038161   
H31      H      0.701921060000     0.037672060000     0.648118800000     0.038161   
H31      H      0.701921060000     0.537672060000     0.148118800000     0.038161   
H31      H      0.701921060000     0.537672060000     0.648118800000     0.038161   
H32      H      0.193588360000     0.036278540000     0.112769665000     0.031586   
H32      H      0.193588360000     0.036278540000     0.612769665000     0.031586   
H32      H      0.193588360000     0.536278540000     0.112769665000     0.031586   
H32      H      0.193588360000     0.536278540000     0.612769665000     0.031586   
H32      H      0.693588360000     0.036278540000     0.112769665000     0.031586   
H32      H      0.693588360000     0.036278540000     0.612769665000     0.031586   
H32      H      0.693588360000     0.536278540000     0.112769665000     0.031586   
H32      H      0.693588360000     0.536278540000     0.612769665000     0.031586   
H33      H      0.168738365000     0.062458280000     0.137585880000     0.064199   
H33      H      0.168738365000     0.062458280000     0.637585880000     0.064199   
H33      H      0.168738365000     0.562458280000     0.137585880000     0.064199   
H33      H      0.168738365000     0.562458280000     0.637585880000     0.064199   
H33      H      0.668738365000     0.062458280000     0.137585880000     0.064199   
H33      H      0.668738365000     0.062458280000     0.637585880000     0.064199   
H33      H      0.668738365000     0.562458280000     0.137585880000     0.064199   
H33      H      0.668738365000     0.562458280000     0.637585880000     0.064199   
H34      H      0.269125580000     0.113451355000     0.319316475000     0.054966   
H34      H      0.269125580000     0.113451355000     0.819316475000     0.054966   
H34      H      0.269125580000     0.613451355000     0.319316475000     0.054966   
H34      H      0.269125580000     0.613451355000     0.819316475000     0.054966   
H34      H      0.769125580000     0.113451355000     0.319316475000     0.054966   
H34      H      0.769125580000     0.113451355000     0.819316475000     0.054966   
H34      H      0.769125580000     0.613451355000     0.319316475000     0.054966   
H34      H      0.769125580000     0.613451355000     0.819316475000     0.054966   
H35      H      0.238311275000     0.073902650000     0.319649665000     0.050951   
H35      H      0.238311275000     0.073902650000     0.819649665000     0.050951   
H35      H      0.238311275000     0.573902650000     0.319649665000     0.050951   
H35      H      0.238311275000     0.573902650000     0.819649665000     0.050951   
H35      H      0.738311275000     0.073902650000     0.319649665000     0.050951   
H35      H      0.738311275000     0.073902650000     0.819649665000     0.050951   
H35      H      0.738311275000     0.573902650000     0.319649665000     0.050951   
H35      H      0.738311275000     0.573902650000     0.819649665000     0.050951   
H36      H      0.224182365000     0.066977820000     0.367189230000    -0.015695   
H36      H      0.224182365000     0.066977820000     0.867189230000    -0.015695   
H36      H      0.224182365000     0.566977820000     0.367189230000    -0.015695   
H36      H      0.224182365000     0.566977820000     0.867189230000    -0.015695   
H36      H      0.724182365000     0.066977820000     0.367189230000    -0.015695   
H36      H      0.724182365000     0.066977820000     0.867189230000    -0.015695   
H36      H      0.724182365000     0.566977820000     0.367189230000    -0.015695   
H36      H      0.724182365000     0.566977820000     0.867189230000    -0.015695   
H37      H      0.255996500000     0.040905735000     0.346444430000     0.013542   
H37      H      0.255996500000     0.040905735000     0.846444430000     0.013542   
H37      H      0.255996500000     0.540905735000     0.346444430000     0.013542   
H37      H      0.255996500000     0.540905735000     0.846444430000     0.013542   
H37      H      0.755996500000     0.040905735000     0.346444430000     0.013542   
H37      H      0.755996500000     0.040905735000     0.846444430000     0.013542   
H37      H      0.755996500000     0.540905735000     0.346444430000     0.013542   
H37      H      0.755996500000     0.540905735000     0.846444430000     0.013542   
H38      H      0.303516180000     0.107349085000     0.000096085000    -0.010336   
H38      H      0.303516180000     0.107349085000     0.500096085000    -0.010336   
H38      H      0.303516180000     0.607349085000     0.000096085000    -0.010336   
H38      H      0.303516180000     0.607349085000     0.500096085000    -0.010336   
H38      H      0.803516180000     0.107349085000     0.000096085000    -0.010336   
H38      H      0.803516180000     0.107349085000     0.500096085000    -0.010336   
H38      H      0.803516180000     0.607349085000     0.000096085000    -0.010336   
H38      H      0.803516180000     0.607349085000     0.500096085000    -0.010336   
H39      H      0.291185050000     0.093237885000     0.048751115000     0.04063    
H39      H      0.291185050000     0.093237885000     0.548751115000     0.04063    
H39      H      0.291185050000     0.593237885000     0.048751115000     0.04063    
H39      H      0.291185050000     0.593237885000     0.548751115000     0.04063    
H39      H      0.791185050000     0.093237885000     0.048751115000     0.04063    
H39      H      0.791185050000     0.093237885000     0.548751115000     0.04063    
H39      H      0.791185050000     0.593237885000     0.048751115000     0.04063    
H39      H      0.791185050000     0.593237885000     0.548751115000     0.04063    
H40      H      0.318960875000     0.069162370000     0.022600590000    -0.034577   
H40      H      0.318960875000     0.069162370000     0.522600590000    -0.034577   
H40      H      0.318960875000     0.569162370000     0.022600590000    -0.034577   
H40      H      0.318960875000     0.569162370000     0.522600590000    -0.034577   
H40      H      0.818960875000     0.069162370000     0.022600590000    -0.034577   
H40      H      0.818960875000     0.069162370000     0.522600590000    -0.034577   
H40      H      0.818960875000     0.569162370000     0.022600590000    -0.034577   
H40      H      0.818960875000     0.569162370000     0.522600590000    -0.034577   
H41      H      0.256223530000     0.046133855000     0.061849595000    -0.089647   
H41      H      0.256223530000     0.046133855000     0.561849595000    -0.089647   
H41      H      0.256223530000     0.546133855000     0.061849595000    -0.089647   
H41      H      0.256223530000     0.546133855000     0.561849595000    -0.089647   
H41      H      0.756223530000     0.046133855000     0.061849595000    -0.089647   
H41      H      0.756223530000     0.046133855000     0.561849595000    -0.089647   
H41      H      0.756223530000     0.546133855000     0.061849595000    -0.089647   
H41      H      0.756223530000     0.546133855000     0.561849595000    -0.089647   
H42      H      0.272477400000     0.055340290000     0.014576375000    -0.186557   
H42      H      0.272477400000     0.055340290000     0.514576375000    -0.186557   
H42      H      0.272477400000     0.555340290000     0.014576375000    -0.186557   
H42      H      0.272477400000     0.555340290000     0.514576375000    -0.186557   
H42      H      0.772477400000     0.055340290000     0.014576375000    -0.186557   
H42      H      0.772477400000     0.055340290000     0.514576375000    -0.186557   
H42      H      0.772477400000     0.555340290000     0.014576375000    -0.186557   
H42      H      0.772477400000     0.555340290000     0.514576375000    -0.186557   
H43      H      0.270199850000     0.147777720000     0.396742375000     0.037633   
H43      H      0.270199850000     0.147777720000     0.896742375000     0.037633   
H43      H      0.270199850000     0.647777720000     0.396742375000     0.037633   
H43      H      0.270199850000     0.647777720000     0.896742375000     0.037633   
H43      H      0.770199850000     0.147777720000     0.396742375000     0.037633   
H43      H      0.770199850000     0.147777720000     0.896742375000     0.037633   
H43      H      0.770199850000     0.647777720000     0.396742375000     0.037633   
H43      H      0.770199850000     0.647777720000     0.896742375000     0.037633   
H44      H      0.273226975000     0.162182690000     0.351472525000     0.093771   
H44      H      0.273226975000     0.162182690000     0.851472525000     0.093771   
H44      H      0.273226975000     0.662182690000     0.351472525000     0.093771   
H44      H      0.273226975000     0.662182690000     0.851472525000     0.093771   
H44      H      0.773226975000     0.162182690000     0.351472525000     0.093771   
H44      H      0.773226975000     0.162182690000     0.851472525000     0.093771   
H44      H      0.773226975000     0.662182690000     0.351472525000     0.093771   
H44      H      0.773226975000     0.662182690000     0.851472525000     0.093771   
H45      H      0.233690560000     0.165574730000     0.389697450000    -3.13211    
H45      H      0.233690560000     0.165574730000     0.889697450000    -3.13211    
H45      H      0.233690560000     0.665574730000     0.389697450000    -3.13211    
H45      H      0.233690560000     0.665574730000     0.889697450000    -3.13211    
H45      H      0.733690560000     0.165574730000     0.389697450000    -3.13211    
H45      H      0.733690560000     0.165574730000     0.889697450000    -3.13211    
H45      H      0.733690560000     0.665574730000     0.389697450000    -3.13211    
H45      H      0.733690560000     0.665574730000     0.889697450000    -3.13211    
H46      H      0.231571065000     0.119655340000     0.369939200000     0.067363   
H46      H      0.231571065000     0.119655340000     0.869939200000     0.067363   
H46      H      0.231571065000     0.619655340000     0.369939200000     0.067363   
H46      H      0.231571065000     0.619655340000     0.869939200000     0.067363   
H46      H      0.731571065000     0.119655340000     0.369939200000     0.067363   
H46      H      0.731571065000     0.119655340000     0.869939200000     0.067363   
H46      H      0.731571065000     0.619655340000     0.369939200000     0.067363   
H46      H      0.731571065000     0.619655340000     0.869939200000     0.067363   
H47      H      0.221139015000     0.106537060000     0.416805500000     0.052173   
H47      H      0.221139015000     0.106537060000     0.916805500000     0.052173   
H47      H      0.221139015000     0.606537060000     0.416805500000     0.052173   
H47      H      0.221139015000     0.606537060000     0.916805500000     0.052173   
H47      H      0.721139015000     0.106537060000     0.416805500000     0.052173   
H47      H      0.721139015000     0.106537060000     0.916805500000     0.052173   
H47      H      0.721139015000     0.606537060000     0.416805500000     0.052173   
H47      H      0.721139015000     0.606537060000     0.916805500000     0.052173   
H48      H      0.049434050000     0.283363600000     0.191123770000    -0.155814   
H48      H      0.049434050000     0.283363600000     0.691123770000    -0.155814   
H48      H      0.049434050000     0.783363600000     0.191123770000    -0.155814   
H48      H      0.049434050000     0.783363600000     0.691123770000    -0.155814   
H48      H      0.549434050000     0.283363600000     0.191123770000    -0.155814   
H48      H      0.549434050000     0.283363600000     0.691123770000    -0.155814   
H48      H      0.549434050000     0.783363600000     0.191123770000    -0.155814   
H48      H      0.549434050000     0.783363600000     0.691123770000    -0.155814   
H49      H      0.468908350000     0.401794880000     0.219152700000     0.340861   
H49      H      0.468908350000     0.401794880000     0.719152700000     0.340861   
H49      H      0.468908350000     0.901794880000     0.219152700000     0.340861   
H49      H      0.468908350000     0.901794880000     0.719152700000     0.340861   
H49      H      0.968908350000     0.401794880000     0.219152700000     0.340861   
H49      H      0.968908350000     0.401794880000     0.719152700000     0.340861   
H49      H      0.968908350000     0.901794880000     0.219152700000     0.340861   
H49      H      0.968908350000     0.901794880000     0.719152700000     0.340861   
H50      H      0.072261450000     0.262510925000     0.141977475000    -0.06149    
H50      H      0.072261450000     0.262510925000     0.641977475000    -0.06149    
H50      H      0.072261450000     0.762510925000     0.141977475000    -0.06149    
H50      H      0.072261450000     0.762510925000     0.641977475000    -0.06149    
H50      H      0.572261450000     0.262510925000     0.141977475000    -0.06149    
H50      H      0.572261450000     0.262510925000     0.641977475000    -0.06149    
H50      H      0.572261450000     0.762510925000     0.141977475000    -0.06149    
H50      H      0.572261450000     0.762510925000     0.641977475000    -0.06149    
H51      H      0.444112630000     0.425565700000     0.267020750000     0.339721   
H51      H      0.444112630000     0.425565700000     0.767020750000     0.339721   
H51      H      0.444112630000     0.925565700000     0.267020750000     0.339721   
H51      H      0.444112630000     0.925565700000     0.767020750000     0.339721   
H51      H      0.944112630000     0.425565700000     0.267020750000     0.339721   
H51      H      0.944112630000     0.425565700000     0.767020750000     0.339721   
H51      H      0.944112630000     0.925565700000     0.267020750000     0.339721   
H51      H      0.944112630000     0.925565700000     0.767020750000     0.339721   
H52      H      0.046989160000     0.359795600000     0.049759530000    -0.683166   
H52      H      0.046989160000     0.359795600000     0.549759530000    -0.683166   
H52      H      0.046989160000     0.859795600000     0.049759530000    -0.683166   
H52      H      0.046989160000     0.859795600000     0.549759530000    -0.683166   
H52      H      0.546989160000     0.359795600000     0.049759530000    -0.683166   
H52      H      0.546989160000     0.359795600000     0.549759530000    -0.683166   
H52      H      0.546989160000     0.859795600000     0.049759530000    -0.683166   
H52      H      0.546989160000     0.859795600000     0.549759530000    -0.683166   
H53      H      0.491911100000     0.356309475000     0.052762550000    -0.005382   
H53      H      0.491911100000     0.356309475000     0.552762550000    -0.005382   
H53      H      0.491911100000     0.856309475000     0.052762550000    -0.005382   
H53      H      0.491911100000     0.856309475000     0.552762550000    -0.005382   
H53      H      0.991911100000     0.356309475000     0.052762550000    -0.005382   
H53      H      0.991911100000     0.356309475000     0.552762550000    -0.005382   
H53      H      0.991911100000     0.856309475000     0.052762550000    -0.005382   
H53      H      0.991911100000     0.856309475000     0.552762550000    -0.005382   
H54      H      0.473531550000     0.336686850000     0.102128485000    -0.005796   
H54      H      0.473531550000     0.336686850000     0.602128485000    -0.005796   
H54      H      0.473531550000     0.836686850000     0.102128485000    -0.005796   
H54      H      0.473531550000     0.836686850000     0.602128485000    -0.005796   
H54      H      0.973531550000     0.336686850000     0.102128485000    -0.005796   
H54      H      0.973531550000     0.336686850000     0.602128485000    -0.005796   
H54      H      0.973531550000     0.836686850000     0.102128485000    -0.005796   
H54      H      0.973531550000     0.836686850000     0.602128485000    -0.005796   
H55      H      0.001379900000     0.313974200000     0.074019590000     0.056465   
H55      H      0.001379900000     0.313974200000     0.574019590000     0.056465   
H55      H      0.001379900000     0.813974200000     0.074019590000     0.056465   
H55      H      0.001379900000     0.813974200000     0.574019590000     0.056465   
H55      H      0.501379900000     0.313974200000     0.074019590000     0.056465   
H55      H      0.501379900000     0.313974200000     0.574019590000     0.056465   
H55      H      0.501379900000     0.813974200000     0.074019590000     0.056465   
H55      H      0.501379900000     0.813974200000     0.574019590000     0.056465   
H56      H      0.494967370000     0.324949300000     0.346596720000     0.053488   
H56      H      0.494967370000     0.324949300000     0.846596720000     0.053488   
H56      H      0.494967370000     0.824949300000     0.346596720000     0.053488   
H56      H      0.494967370000     0.824949300000     0.846596720000     0.053488   
H56      H      0.994967370000     0.324949300000     0.346596720000     0.053488   
H56      H      0.994967370000     0.324949300000     0.846596720000     0.053488   
H56      H      0.994967370000     0.824949300000     0.346596720000     0.053488   
H56      H      0.994967370000     0.824949300000     0.846596720000     0.053488   
H57      H      0.441837965000     0.298855900000     0.398405880000     0.046461   
H57      H      0.441837965000     0.298855900000     0.898405880000     0.046461   
H57      H      0.441837965000     0.798855900000     0.398405880000     0.046461   
H57      H      0.441837965000     0.798855900000     0.898405880000     0.046461   
H57      H      0.941837965000     0.298855900000     0.398405880000     0.046461   
H57      H      0.941837965000     0.298855900000     0.898405880000     0.046461   
H57      H      0.941837965000     0.798855900000     0.398405880000     0.046461   
H57      H      0.941837965000     0.798855900000     0.898405880000     0.046461   
H58      H      0.443221900000     0.292780400000     0.360106250000    -0.095796   
H58      H      0.443221900000     0.292780400000     0.860106250000    -0.095796   
H58      H      0.443221900000     0.792780400000     0.360106250000    -0.095796   
H58      H      0.443221900000     0.792780400000     0.860106250000    -0.095796   
H58      H      0.943221900000     0.292780400000     0.360106250000    -0.095796   
H58      H      0.943221900000     0.292780400000     0.860106250000    -0.095796   
H58      H      0.943221900000     0.792780400000     0.360106250000    -0.095796   
H58      H      0.943221900000     0.792780400000     0.860106250000    -0.095796   
H59      H      0.418158770000     0.325168950000     0.374258900000     0.027715   
H59      H      0.418158770000     0.325168950000     0.874258900000     0.027715   
H59      H      0.418158770000     0.825168950000     0.374258900000     0.027715   
H59      H      0.418158770000     0.825168950000     0.874258900000     0.027715   
H59      H      0.918158770000     0.325168950000     0.374258900000     0.027715   
H59      H      0.918158770000     0.325168950000     0.874258900000     0.027715   
H59      H      0.918158770000     0.825168950000     0.374258900000     0.027715   
H59      H      0.918158770000     0.825168950000     0.874258900000     0.027715   
H60      H      0.043410795000     0.393660600000     0.138767420000     0.035079   
H60      H      0.043410795000     0.393660600000     0.638767420000     0.035079   
H60      H      0.043410795000     0.893660600000     0.138767420000     0.035079   
H60      H      0.043410795000     0.893660600000     0.638767420000     0.035079   
H60      H      0.543410795000     0.393660600000     0.138767420000     0.035079   
H60      H      0.543410795000     0.393660600000     0.638767420000     0.035079   
H60      H      0.543410795000     0.893660600000     0.138767420000     0.035079   
H60      H      0.543410795000     0.893660600000     0.638767420000     0.035079   
H61      H      0.049154935000     0.409544600000     0.092078100000     0.02811    
H61      H      0.049154935000     0.409544600000     0.592078100000     0.02811    
H61      H      0.049154935000     0.909544600000     0.092078100000     0.02811    
H61      H      0.049154935000     0.909544600000     0.592078100000     0.02811    
H61      H      0.549154935000     0.409544600000     0.092078100000     0.02811    
H61      H      0.549154935000     0.409544600000     0.592078100000     0.02811    
H61      H      0.549154935000     0.909544600000     0.092078100000     0.02811    
H61      H      0.549154935000     0.909544600000     0.592078100000     0.02811    
H62      H      0.015850880000     0.424751100000     0.125545900000     0.036395   
H62      H      0.015850880000     0.424751100000     0.625545900000     0.036395   
H62      H      0.015850880000     0.924751100000     0.125545900000     0.036395   
H62      H      0.015850880000     0.924751100000     0.625545900000     0.036395   
H62      H      0.515850880000     0.424751100000     0.125545900000     0.036395   
H62      H      0.515850880000     0.424751100000     0.625545900000     0.036395   
H62      H      0.515850880000     0.924751100000     0.125545900000     0.036395   
H62      H      0.515850880000     0.924751100000     0.625545900000     0.036395   
H63      H      0.494261680000     0.384062530000     0.110702105000     0.027264   
H63      H      0.494261680000     0.384062530000     0.610702105000     0.027264   
H63      H      0.494261680000     0.884062530000     0.110702105000     0.027264   
H63      H      0.494261680000     0.884062530000     0.610702105000     0.027264   
H63      H      0.994261680000     0.384062530000     0.110702105000     0.027264   
H63      H      0.994261680000     0.384062530000     0.610702105000     0.027264   
H63      H      0.994261680000     0.884062530000     0.110702105000     0.027264   
H63      H      0.994261680000     0.884062530000     0.610702105000     0.027264   
H64      H      0.481354400000     0.373989400000     0.157629100000    -0.007554   
H64      H      0.481354400000     0.373989400000     0.657629100000    -0.007554   
H64      H      0.481354400000     0.873989400000     0.157629100000    -0.007554   
H64      H      0.481354400000     0.873989400000     0.657629100000    -0.007554   
H64      H      0.981354400000     0.373989400000     0.157629100000    -0.007554   
H64      H      0.981354400000     0.373989400000     0.657629100000    -0.007554   
H64      H      0.981354400000     0.873989400000     0.157629100000    -0.007554   
H64      H      0.981354400000     0.873989400000     0.657629100000    -0.007554   
H65      H      0.060134770000     0.334043680000     0.245481600000     0.024173   
H65      H      0.060134770000     0.334043680000     0.745481600000     0.024173   
H65      H      0.060134770000     0.834043680000     0.245481600000     0.024173   
H65      H      0.060134770000     0.834043680000     0.745481600000     0.024173   
H65      H      0.560134770000     0.334043680000     0.245481600000     0.024173   
H65      H      0.560134770000     0.334043680000     0.745481600000     0.024173   
H65      H      0.560134770000     0.834043680000     0.245481600000     0.024173   
H65      H      0.560134770000     0.834043680000     0.745481600000     0.024173   
H66      H      0.049353955000     0.330555320000     0.291365770000     0.769422   
H66      H      0.049353955000     0.330555320000     0.791365770000     0.769422   
H66      H      0.049353955000     0.830555320000     0.291365770000     0.769422   
H66      H      0.049353955000     0.830555320000     0.791365770000     0.769422   
H66      H      0.549353955000     0.330555320000     0.291365770000     0.769422   
H66      H      0.549353955000     0.330555320000     0.791365770000     0.769422   
H66      H      0.549353955000     0.830555320000     0.291365770000     0.769422   
H66      H      0.549353955000     0.830555320000     0.791365770000     0.769422   
H67      H      0.061295770000     0.294599700000     0.279626350000    -0.001488   
H67      H      0.061295770000     0.294599700000     0.779626350000    -0.001488   
H67      H      0.061295770000     0.794599700000     0.279626350000    -0.001488   
H67      H      0.061295770000     0.794599700000     0.779626350000    -0.001488   
H67      H      0.561295770000     0.294599700000     0.279626350000    -0.001488   
H67      H      0.561295770000     0.294599700000     0.779626350000    -0.001488   
H67      H      0.561295770000     0.794599700000     0.279626350000    -0.001488   
H67      H      0.561295770000     0.794599700000     0.779626350000    -0.001488   
H68      H      0.497736150000     0.293710680000     0.315888525000     0.032614   
H68      H      0.497736150000     0.293710680000     0.815888525000     0.032614   
H68      H      0.497736150000     0.793710680000     0.315888525000     0.032614   
H68      H      0.497736150000     0.793710680000     0.815888525000     0.032614   
H68      H      0.997736150000     0.293710680000     0.315888525000     0.032614   
H68      H      0.997736150000     0.293710680000     0.815888525000     0.032614   
H68      H      0.997736150000     0.793710680000     0.315888525000     0.032614   
H68      H      0.997736150000     0.793710680000     0.815888525000     0.032614   
H69      H      0.008601440000     0.297344300000     0.271422500000     0.028341   
H69      H      0.008601440000     0.297344300000     0.771422500000     0.028341   
H69      H      0.008601440000     0.797344300000     0.271422500000     0.028341   
H69      H      0.008601440000     0.797344300000     0.771422500000     0.028341   
H69      H      0.508601440000     0.297344300000     0.271422500000     0.028341   
H69      H      0.508601440000     0.297344300000     0.771422500000     0.028341   
H69      H      0.508601440000     0.797344300000     0.271422500000     0.028341   
H69      H      0.508601440000     0.797344300000     0.771422500000     0.028341   
H70      H      0.472667515000     0.341050775000     0.467029125000     0.052307   
H70      H      0.472667515000     0.341050775000     0.967029125000     0.052307   
H70      H      0.472667515000     0.841050775000     0.467029125000     0.052307   
H70      H      0.472667515000     0.841050775000     0.967029125000     0.052307   
H70      H      0.972667515000     0.341050775000     0.467029125000     0.052307   
H70      H      0.972667515000     0.341050775000     0.967029125000     0.052307   
H70      H      0.972667515000     0.841050775000     0.467029125000     0.052307   
H70      H      0.972667515000     0.841050775000     0.967029125000     0.052307   
H71      H      0.044995395000     0.428548900000     0.444625250000     0.04781    
H71      H      0.044995395000     0.428548900000     0.944625250000     0.04781    
H71      H      0.044995395000     0.928548900000     0.444625250000     0.04781    
H71      H      0.044995395000     0.928548900000     0.944625250000     0.04781    
H71      H      0.544995395000     0.428548900000     0.444625250000     0.04781    
H71      H      0.544995395000     0.428548900000     0.944625250000     0.04781    
H71      H      0.544995395000     0.928548900000     0.444625250000     0.04781    
H71      H      0.544995395000     0.928548900000     0.944625250000     0.04781    
H72      H      0.045359130000     0.342447670000     0.435650350000     0.05492    
H72      H      0.045359130000     0.342447670000     0.935650350000     0.05492    
H72      H      0.045359130000     0.842447670000     0.435650350000     0.05492    
H72      H      0.045359130000     0.842447670000     0.935650350000     0.05492    
H72      H      0.545359130000     0.342447670000     0.435650350000     0.05492    
H72      H      0.545359130000     0.342447670000     0.935650350000     0.05492    
H72      H      0.545359130000     0.842447670000     0.435650350000     0.05492    
H72      H      0.545359130000     0.842447670000     0.935650350000     0.05492    
H73      H      0.471471150000     0.427639125000     0.475305800000     0.032195   
H73      H      0.471471150000     0.427639125000     0.975305800000     0.032195   
H73      H      0.471471150000     0.927639125000     0.475305800000     0.032195   
H73      H      0.471471150000     0.927639125000     0.975305800000     0.032195   
H73      H      0.971471150000     0.427639125000     0.475305800000     0.032195   
H73      H      0.971471150000     0.427639125000     0.975305800000     0.032195   
H73      H      0.971471150000     0.927639125000     0.475305800000     0.032195   
H73      H      0.971471150000     0.927639125000     0.975305800000     0.032195   
H74      H      0.470177350000     0.360117900000     0.021605075000    -1.83228    
H74      H      0.470177350000     0.360117900000     0.521605075000    -1.83228    
H74      H      0.470177350000     0.860117900000     0.021605075000    -1.83228    
H74      H      0.470177350000     0.860117900000     0.521605075000    -1.83228    
H74      H      0.970177350000     0.360117900000     0.021605075000    -1.83228    
H74      H      0.970177350000     0.360117900000     0.521605075000    -1.83228    
H74      H      0.970177350000     0.860117900000     0.021605075000    -1.83228    
H74      H      0.970177350000     0.860117900000     0.521605075000    -1.83228    
H75      H      0.047008810000     0.409716935000     0.389570980000     0.049568   
H75      H      0.047008810000     0.409716935000     0.889570980000     0.049568   
H75      H      0.047008810000     0.909716935000     0.389570980000     0.049568   
H75      H      0.047008810000     0.909716935000     0.889570980000     0.049568   
H75      H      0.547008810000     0.409716935000     0.389570980000     0.049568   
H75      H      0.547008810000     0.409716935000     0.889570980000     0.049568   
H75      H      0.547008810000     0.909716935000     0.389570980000     0.049568   
H75      H      0.547008810000     0.909716935000     0.889570980000     0.049568   
H76      H      0.385547950000     0.401852650000     0.419544815000     0.019623   
H76      H      0.385547950000     0.401852650000     0.919544815000     0.019623   
H76      H      0.385547950000     0.901852650000     0.419544815000     0.019623   
H76      H      0.385547950000     0.901852650000     0.919544815000     0.019623   
H76      H      0.885547950000     0.401852650000     0.419544815000     0.019623   
H76      H      0.885547950000     0.401852650000     0.919544815000     0.019623   
H76      H      0.885547950000     0.901852650000     0.419544815000     0.019623   
H76      H      0.885547950000     0.901852650000     0.919544815000     0.019623   
H77      H      0.127092900000     0.314088285000     0.492537300000     0.052477   
H77      H      0.127092900000     0.314088285000     0.992537300000     0.052477   
H77      H      0.127092900000     0.814088285000     0.492537300000     0.052477   
H77      H      0.127092900000     0.814088285000     0.992537300000     0.052477   
H77      H      0.627092900000     0.314088285000     0.492537300000     0.052477   
H77      H      0.627092900000     0.314088285000     0.992537300000     0.052477   
H77      H      0.627092900000     0.814088285000     0.492537300000     0.052477   
H77      H      0.627092900000     0.814088285000     0.992537300000     0.052477   
H78      H      0.009101670000     0.387838300000     0.334899275000     0.0198     
H78      H      0.009101670000     0.387838300000     0.834899275000     0.0198     
H78      H      0.009101670000     0.887838300000     0.334899275000     0.0198     
H78      H      0.009101670000     0.887838300000     0.834899275000     0.0198     
H78      H      0.509101670000     0.387838300000     0.334899275000     0.0198     
H78      H      0.509101670000     0.387838300000     0.834899275000     0.0198     
H78      H      0.509101670000     0.887838300000     0.334899275000     0.0198     
H78      H      0.509101670000     0.887838300000     0.834899275000     0.0198     
H79      H      0.016390815000     0.423195100000     0.341884820000     0.104101   
H79      H      0.016390815000     0.423195100000     0.841884820000     0.104101   
H79      H      0.016390815000     0.923195100000     0.341884820000     0.104101   
H79      H      0.016390815000     0.923195100000     0.841884820000     0.104101   
H79      H      0.516390815000     0.423195100000     0.341884820000     0.104101   
H79      H      0.516390815000     0.423195100000     0.841884820000     0.104101   
H79      H      0.516390815000     0.923195100000     0.341884820000     0.104101   
H79      H      0.516390815000     0.923195100000     0.841884820000     0.104101   
H80      H      0.051503730000     0.451567250000     0.275018780000    -0.033125   
H80      H      0.051503730000     0.451567250000     0.775018780000    -0.033125   
H80      H      0.051503730000     0.951567250000     0.275018780000    -0.033125   
H80      H      0.051503730000     0.951567250000     0.775018780000    -0.033125   
H80      H      0.551503730000     0.451567250000     0.275018780000    -0.033125   
H80      H      0.551503730000     0.451567250000     0.775018780000    -0.033125   
H80      H      0.551503730000     0.951567250000     0.275018780000    -0.033125   
H80      H      0.551503730000     0.951567250000     0.775018780000    -0.033125   
H81      H      0.068152935000     0.411903085000     0.293145270000    -0.037775   
H81      H      0.068152935000     0.411903085000     0.793145270000    -0.037775   
H81      H      0.068152935000     0.911903085000     0.293145270000    -0.037775   
H81      H      0.068152935000     0.911903085000     0.793145270000    -0.037775   
H81      H      0.568152935000     0.411903085000     0.293145270000    -0.037775   
H81      H      0.568152935000     0.411903085000     0.793145270000    -0.037775   
H81      H      0.568152935000     0.911903085000     0.293145270000    -0.037775   
H81      H      0.568152935000     0.911903085000     0.793145270000    -0.037775   
H82      H      0.044705675000     0.416711800000     0.267388850000    -0.037946   
H82      H      0.044705675000     0.416711800000     0.767388850000    -0.037946   
H82      H      0.044705675000     0.916711800000     0.267388850000    -0.037946   
H82      H      0.044705675000     0.916711800000     0.767388850000    -0.037946   
H82      H      0.544705675000     0.416711800000     0.267388850000    -0.037946   
H82      H      0.544705675000     0.416711800000     0.767388850000    -0.037946   
H82      H      0.544705675000     0.916711800000     0.267388850000    -0.037946   
H82      H      0.544705675000     0.916711800000     0.767388850000    -0.037946   
H83      H      0.497018875000     0.314693850000     0.065551220000    -0.033505   
H83      H      0.497018875000     0.314693850000     0.565551220000    -0.033505   
H83      H      0.497018875000     0.814693850000     0.065551220000    -0.033505   
H83      H      0.497018875000     0.814693850000     0.565551220000    -0.033505   
H83      H      0.997018875000     0.314693850000     0.065551220000    -0.033505   
H83      H      0.997018875000     0.314693850000     0.565551220000    -0.033505   
H83      H      0.997018875000     0.814693850000     0.065551220000    -0.033505   
H83      H      0.997018875000     0.814693850000     0.565551220000    -0.033505   
H84      H      0.015674755000     0.337355165000     0.079849540000    -0.119532   
H84      H      0.015674755000     0.337355165000     0.579849540000    -0.119532   
H84      H      0.015674755000     0.837355165000     0.079849540000    -0.119532   
H84      H      0.015674755000     0.837355165000     0.579849540000    -0.119532   
H84      H      0.515674755000     0.337355165000     0.079849540000    -0.119532   
H84      H      0.515674755000     0.337355165000     0.579849540000    -0.119532   
H84      H      0.515674755000     0.837355165000     0.079849540000    -0.119532   
H84      H      0.515674755000     0.837355165000     0.579849540000    -0.119532   
H85      H      0.472216100000     0.311806025000     0.143638200000    -0.113217   
H85      H      0.472216100000     0.311806025000     0.643638200000    -0.113217   
H85      H      0.472216100000     0.811806025000     0.143638200000    -0.113217   
H85      H      0.472216100000     0.811806025000     0.643638200000    -0.113217   
H85      H      0.972216100000     0.311806025000     0.143638200000    -0.113217   
H85      H      0.972216100000     0.311806025000     0.643638200000    -0.113217   
H85      H      0.972216100000     0.811806025000     0.143638200000    -0.113217   
H85      H      0.972216100000     0.811806025000     0.643638200000    -0.113217   
H86      H      0.451641050000     0.330940350000     0.113893690000    -0.036131   
H86      H      0.451641050000     0.330940350000     0.613893690000    -0.036131   
H86      H      0.451641050000     0.830940350000     0.113893690000    -0.036131   
H86      H      0.451641050000     0.830940350000     0.613893690000    -0.036131   
H86      H      0.951641050000     0.330940350000     0.113893690000    -0.036131   
H86      H      0.951641050000     0.330940350000     0.613893690000    -0.036131   
H86      H      0.951641050000     0.830940350000     0.113893690000    -0.036131   
H86      H      0.951641050000     0.830940350000     0.613893690000    -0.036131   
H87      H      0.455043400000     0.286598680000     0.131324230000    -0.029787   
H87      H      0.455043400000     0.286598680000     0.631324230000    -0.029787   
H87      H      0.455043400000     0.786598680000     0.131324230000    -0.029787   
H87      H      0.455043400000     0.786598680000     0.631324230000    -0.029787   
H87      H      0.955043400000     0.286598680000     0.131324230000    -0.029787   
H87      H      0.955043400000     0.286598680000     0.631324230000    -0.029787   
H87      H      0.955043400000     0.786598680000     0.131324230000    -0.029787   
H87      H      0.955043400000     0.786598680000     0.631324230000    -0.029787   
C88      C      0.214599190000     0.164388510000     0.083138220000    -0.000491   
C88      C      0.214599190000     0.164388510000     0.583138220000    -0.000491   
C88      C      0.214599190000     0.664388510000     0.083138220000    -0.000491   
C88      C      0.214599190000     0.664388510000     0.583138220000    -0.000491   
C88      C      0.714599190000     0.164388510000     0.083138220000    -0.000491   
C88      C      0.714599190000     0.164388510000     0.583138220000    -0.000491   
C88      C      0.714599190000     0.664388510000     0.083138220000    -0.000491   
C88      C      0.714599190000     0.664388510000     0.583138220000    -0.000491   
C89      C      0.288019800000     0.038774395000     0.336111700000    -0.004093   
C89      C      0.288019800000     0.038774395000     0.836111700000    -0.004093   
C89      C      0.288019800000     0.538774395000     0.336111700000    -0.004093   
C89      C      0.288019800000     0.538774395000     0.836111700000    -0.004093   
C89      C      0.788019800000     0.038774395000     0.336111700000    -0.004093   
C89      C      0.788019800000     0.038774395000     0.836111700000    -0.004093   
C89      C      0.788019800000     0.538774395000     0.336111700000    -0.004093   
C89      C      0.788019800000     0.538774395000     0.836111700000    -0.004093   
C90      C      0.267591800000     0.116531535000     0.204652500000    -0.008478   
C90      C      0.267591800000     0.116531535000     0.704652500000    -0.008478   
C90      C      0.267591800000     0.616531535000     0.204652500000    -0.008478   
C90      C      0.267591800000     0.616531535000     0.704652500000    -0.008478   
C90      C      0.767591800000     0.116531535000     0.204652500000    -0.008478   
C90      C      0.767591800000     0.116531535000     0.704652500000    -0.008478   
C90      C      0.767591800000     0.616531535000     0.204652500000    -0.008478   
C90      C      0.767591800000     0.616531535000     0.704652500000    -0.008478   
C91      C      0.205560880000     0.139919550000     0.236875900000     0.024288   
C91      C      0.205560880000     0.139919550000     0.736875900000     0.024288   
C91      C      0.205560880000     0.639919550000     0.236875900000     0.024288   
C91      C      0.205560880000     0.639919550000     0.736875900000     0.024288   
C91      C      0.705560880000     0.139919550000     0.236875900000     0.024288   
C91      C      0.705560880000     0.139919550000     0.736875900000     0.024288   
C91      C      0.705560880000     0.639919550000     0.236875900000     0.024288   
C91      C      0.705560880000     0.639919550000     0.736875900000     0.024288   
C92      C      0.233048840000     0.102439070000     0.214302825000    -3.27071    
C92      C      0.233048840000     0.102439070000     0.714302825000    -3.27071    
C92      C      0.233048840000     0.602439070000     0.214302825000    -3.27071    
C92      C      0.233048840000     0.602439070000     0.714302825000    -3.27071    
C92      C      0.733048840000     0.102439070000     0.214302825000    -3.27071    
C92      C      0.733048840000     0.102439070000     0.714302825000    -3.27071    
C92      C      0.733048840000     0.602439070000     0.214302825000    -3.27071    
C92      C      0.733048840000     0.602439070000     0.714302825000    -3.27071    
C93      C      0.240522190000     0.153977290000     0.227528380000    -0.640175   
C93      C      0.240522190000     0.153977290000     0.727528380000    -0.640175   
C93      C      0.240522190000     0.653977290000     0.227528380000    -0.640175   
C93      C      0.240522190000     0.653977290000     0.727528380000    -0.640175   
C93      C      0.740522190000     0.153977290000     0.227528380000    -0.640175   
C93      C      0.740522190000     0.153977290000     0.727528380000    -0.640175   
C93      C      0.740522190000     0.653977290000     0.227528380000    -0.640175   
C93      C      0.740522190000     0.653977290000     0.727528380000    -0.640175   
C94      C      0.201902350000     0.146091760000     0.149335235000     0.087578   
C94      C      0.201902350000     0.146091760000     0.649335235000     0.087578   
C94      C      0.201902350000     0.646091760000     0.149335235000     0.087578   
C94      C      0.201902350000     0.646091760000     0.649335235000     0.087578   
C94      C      0.701902350000     0.146091760000     0.149335235000     0.087578   
C94      C      0.701902350000     0.146091760000     0.649335235000     0.087578   
C94      C      0.701902350000     0.646091760000     0.149335235000     0.087578   
C94      C      0.701902350000     0.646091760000     0.649335235000     0.087578   
C95      C      0.283656120000     0.088028020000     0.283110470000    -0.099934   
C95      C      0.283656120000     0.088028020000     0.783110470000    -0.099934   
C95      C      0.283656120000     0.588028020000     0.283110470000    -0.099934   
C95      C      0.283656120000     0.588028020000     0.783110470000    -0.099934   
C95      C      0.783656120000     0.088028020000     0.283110470000    -0.099934   
C95      C      0.783656120000     0.088028020000     0.783110470000    -0.099934   
C95      C      0.783656120000     0.588028020000     0.283110470000    -0.099934   
C95      C      0.783656120000     0.588028020000     0.783110470000    -0.099934   
C96      C      0.256536800000     0.152031035000     0.189022700000     0.110706   
C96      C      0.256536800000     0.152031035000     0.689022700000     0.110706   
C96      C      0.256536800000     0.652031035000     0.189022700000     0.110706   
C96      C      0.256536800000     0.652031035000     0.689022700000     0.110706   
C96      C      0.756536800000     0.152031035000     0.189022700000     0.110706   
C96      C      0.756536800000     0.152031035000     0.689022700000     0.110706   
C96      C      0.756536800000     0.652031035000     0.189022700000     0.110706   
C96      C      0.756536800000     0.652031035000     0.689022700000     0.110706   
C97      C      0.216904490000     0.104323020000     0.252526150000    -0.203337   
C97      C      0.216904490000     0.104323020000     0.752526150000    -0.203337   
C97      C      0.216904490000     0.604323020000     0.252526150000    -0.203337   
C97      C      0.216904490000     0.604323020000     0.752526150000    -0.203337   
C97      C      0.716904490000     0.104323020000     0.252526150000    -0.203337   
C97      C      0.716904490000     0.104323020000     0.752526150000    -0.203337   
C97      C      0.716904490000     0.604323020000     0.252526150000    -0.203337   
C97      C      0.716904490000     0.604323020000     0.752526150000    -0.203337   
C98      C      0.222067350000     0.137786525000     0.198919450000     0.617564   
C98      C      0.222067350000     0.137786525000     0.698919450000     0.617564   
C98      C      0.222067350000     0.637786525000     0.198919450000     0.617564   
C98      C      0.222067350000     0.637786525000     0.698919450000     0.617564   
C98      C      0.722067350000     0.137786525000     0.198919450000     0.617564   
C98      C      0.722067350000     0.137786525000     0.698919450000     0.617564   
C98      C      0.722067350000     0.637786525000     0.198919450000     0.617564   
C98      C      0.722067350000     0.637786525000     0.698919450000     0.617564   
C99      C      0.251395075000     0.118515550000     0.242632900000    -0.255661   
C99      C      0.251395075000     0.118515550000     0.742632900000    -0.255661   
C99      C      0.251395075000     0.618515550000     0.242632900000    -0.255661   
C99      C      0.251395075000     0.618515550000     0.742632900000    -0.255661   
C99      C      0.751395075000     0.118515550000     0.242632900000    -0.255661   
C99      C      0.751395075000     0.118515550000     0.742632900000    -0.255661   
C99      C      0.751395075000     0.618515550000     0.242632900000    -0.255661   
C99      C      0.751395075000     0.618515550000     0.742632900000    -0.255661   
C100     C      0.209030075000     0.144213915000     0.172748925000     0.028067   
C100     C      0.209030075000     0.144213915000     0.672748925000     0.028067   
C100     C      0.209030075000     0.644213915000     0.172748925000     0.028067   
C100     C      0.209030075000     0.644213915000     0.672748925000     0.028067   
C100     C      0.709030075000     0.144213915000     0.172748925000     0.028067   
C100     C      0.709030075000     0.144213915000     0.672748925000     0.028067   
C100     C      0.709030075000     0.644213915000     0.172748925000     0.028067   
C100     C      0.709030075000     0.644213915000     0.672748925000     0.028067   
C101     C      0.268950650000     0.103728945000     0.265280785000    -0.137181   
C101     C      0.268950650000     0.103728945000     0.765280785000    -0.137181   
C101     C      0.268950650000     0.603728945000     0.265280785000    -0.137181   
C101     C      0.268950650000     0.603728945000     0.765280785000    -0.137181   
C101     C      0.768950650000     0.103728945000     0.265280785000    -0.137181   
C101     C      0.768950650000     0.103728945000     0.765280785000    -0.137181   
C101     C      0.768950650000     0.603728945000     0.265280785000    -0.137181   
C101     C      0.768950650000     0.603728945000     0.765280785000    -0.137181   
C102     C      0.168152330000     0.131491660000     0.125631525000     0.256398   
C102     C      0.168152330000     0.131491660000     0.625631525000     0.256398   
C102     C      0.168152330000     0.631491660000     0.125631525000     0.256398   
C102     C      0.168152330000     0.631491660000     0.625631525000     0.256398   
C102     C      0.668152330000     0.131491660000     0.125631525000     0.256398   
C102     C      0.668152330000     0.131491660000     0.625631525000     0.256398   
C102     C      0.668152330000     0.631491660000     0.125631525000     0.256398   
C102     C      0.668152330000     0.631491660000     0.625631525000     0.256398   
C103     C      0.334970625000     0.071824305000     0.293837725000     0.287614   
C103     C      0.334970625000     0.071824305000     0.793837725000     0.287614   
C103     C      0.334970625000     0.571824305000     0.293837725000     0.287614   
C103     C      0.334970625000     0.571824305000     0.793837725000     0.287614   
C103     C      0.834970625000     0.071824305000     0.293837725000     0.287614   
C103     C      0.834970625000     0.071824305000     0.793837725000     0.287614   
C103     C      0.834970625000     0.571824305000     0.293837725000     0.287614   
C103     C      0.834970625000     0.571824305000     0.793837725000     0.287614   
C104     C      0.196546630000     0.145830125000     0.120481715000    -0.205939   
C104     C      0.196546630000     0.145830125000     0.620481715000    -0.205939   
C104     C      0.196546630000     0.645830125000     0.120481715000    -0.205939   
C104     C      0.196546630000     0.645830125000     0.620481715000    -0.205939   
C104     C      0.696546630000     0.145830125000     0.120481715000    -0.205939   
C104     C      0.696546630000     0.145830125000     0.620481715000    -0.205939   
C104     C      0.696546630000     0.645830125000     0.120481715000    -0.205939   
C104     C      0.696546630000     0.645830125000     0.620481715000    -0.205939   
C105     C      0.300783250000     0.067310500000     0.303899750000    -0.128091   
C105     C      0.300783250000     0.067310500000     0.803899750000    -0.128091   
C105     C      0.300783250000     0.567310500000     0.303899750000    -0.128091   
C105     C      0.300783250000     0.567310500000     0.803899750000    -0.128091   
C105     C      0.800783250000     0.067310500000     0.303899750000    -0.128091   
C105     C      0.800783250000     0.067310500000     0.803899750000    -0.128091   
C105     C      0.800783250000     0.567310500000     0.303899750000    -0.128091   
C105     C      0.800783250000     0.567310500000     0.803899750000    -0.128091   
C106     C      0.264347250000     0.182403835000     0.077217445000    -0.242659   
C106     C      0.264347250000     0.182403835000     0.577217445000    -0.242659   
C106     C      0.264347250000     0.682403835000     0.077217445000    -0.242659   
C106     C      0.264347250000     0.682403835000     0.577217445000    -0.242659   
C106     C      0.764347250000     0.182403835000     0.077217445000    -0.242659   
C106     C      0.764347250000     0.182403835000     0.577217445000    -0.242659   
C106     C      0.764347250000     0.682403835000     0.077217445000    -0.242659   
C106     C      0.764347250000     0.682403835000     0.577217445000    -0.242659   
C107     C      0.295333835000     0.205590050000     0.047707540000    -0.379224   
C107     C      0.295333835000     0.205590050000     0.547707540000    -0.379224   
C107     C      0.295333835000     0.705590050000     0.047707540000    -0.379224   
C107     C      0.295333835000     0.705590050000     0.547707540000    -0.379224   
C107     C      0.795333835000     0.205590050000     0.047707540000    -0.379224   
C107     C      0.795333835000     0.205590050000     0.547707540000    -0.379224   
C107     C      0.795333835000     0.705590050000     0.047707540000    -0.379224   
C107     C      0.795333835000     0.705590050000     0.547707540000    -0.379224   
C108     C      0.229996740000     0.040519880000     0.348502050000    -0.046581   
C108     C      0.229996740000     0.040519880000     0.848502050000    -0.046581   
C108     C      0.229996740000     0.540519880000     0.348502050000    -0.046581   
C108     C      0.229996740000     0.540519880000     0.848502050000    -0.046581   
C108     C      0.729996740000     0.040519880000     0.348502050000    -0.046581   
C108     C      0.729996740000     0.040519880000     0.848502050000    -0.046581   
C108     C      0.729996740000     0.540519880000     0.348502050000    -0.046581   
C108     C      0.729996740000     0.540519880000     0.848502050000    -0.046581   
C109     C      0.195724665000     0.022250475000     0.377483220000    -0.043115   
C109     C      0.195724665000     0.022250475000     0.877483220000    -0.043115   
C109     C      0.195724665000     0.522250475000     0.377483220000    -0.043115   
C109     C      0.195724665000     0.522250475000     0.877483220000    -0.043115   
C109     C      0.695724665000     0.022250475000     0.377483220000    -0.043115   
C109     C      0.695724665000     0.022250475000     0.877483220000    -0.043115   
C109     C      0.695724665000     0.522250475000     0.377483220000    -0.043115   
C109     C      0.695724665000     0.522250475000     0.877483220000    -0.043115   
C110     C      0.263797850000     0.356396615000     0.438230870000    -0.015882   
C110     C      0.263797850000     0.356396615000     0.938230870000    -0.015882   
C110     C      0.263797850000     0.856396615000     0.438230870000    -0.015882   
C110     C      0.263797850000     0.856396615000     0.938230870000    -0.015882   
C110     C      0.763797850000     0.356396615000     0.438230870000    -0.015882   
C110     C      0.763797850000     0.356396615000     0.938230870000    -0.015882   
C110     C      0.763797850000     0.856396615000     0.438230870000    -0.015882   
C110     C      0.763797850000     0.856396615000     0.938230870000    -0.015882   
C111     C      0.247358550000     0.333960850000     0.474828500000    -0.071462   
C111     C      0.247358550000     0.333960850000     0.974828500000    -0.071462   
C111     C      0.247358550000     0.833960850000     0.474828500000    -0.071462   
C111     C      0.247358550000     0.833960850000     0.974828500000    -0.071462   
C111     C      0.747358550000     0.333960850000     0.474828500000    -0.071462   
C111     C      0.747358550000     0.333960850000     0.974828500000    -0.071462   
C111     C      0.747358550000     0.833960850000     0.474828500000    -0.071462   
C111     C      0.747358550000     0.833960850000     0.974828500000    -0.071462   
C112     C      0.216597585000     0.291979580000     0.043309150000    -0.09136    
C112     C      0.216597585000     0.291979580000     0.543309150000    -0.09136    
C112     C      0.216597585000     0.791979580000     0.043309150000    -0.09136    
C112     C      0.216597585000     0.791979580000     0.543309150000    -0.09136    
C112     C      0.716597585000     0.291979580000     0.043309150000    -0.09136    
C112     C      0.716597585000     0.291979580000     0.543309150000    -0.09136    
C112     C      0.716597585000     0.791979580000     0.043309150000    -0.09136    
C112     C      0.716597585000     0.791979580000     0.543309150000    -0.09136    
C113     C      0.294558735000     0.398377925000     0.369750250000     0.079368   
C113     C      0.294558735000     0.398377925000     0.869750250000     0.079368   
C113     C      0.294558735000     0.898377925000     0.369750250000     0.079368   
C113     C      0.294558735000     0.898377925000     0.869750250000     0.079368   
C113     C      0.794558735000     0.398377925000     0.369750250000     0.079368   
C113     C      0.794558735000     0.398377925000     0.869750250000     0.079368   
C113     C      0.794558735000     0.898377925000     0.369750250000     0.079368   
C113     C      0.794558735000     0.898377925000     0.869750250000     0.079368   
C114     C      0.277853950000     0.375576825000     0.406938730000     0.027524   
C114     C      0.277853950000     0.375576825000     0.906938730000     0.027524   
C114     C      0.277853950000     0.875576825000     0.406938730000     0.027524   
C114     C      0.277853950000     0.875576825000     0.906938730000     0.027524   
C114     C      0.777853950000     0.375576825000     0.406938730000     0.027524   
C114     C      0.777853950000     0.375576825000     0.906938730000     0.027524   
C114     C      0.777853950000     0.875576825000     0.406938730000     0.027524   
C114     C      0.777853950000     0.875576825000     0.906938730000     0.027524   
C115     C      0.233302460000     0.314780650000     0.006120680000     0.061972   
C115     C      0.233302460000     0.314780650000     0.506120680000     0.061972   
C115     C      0.233302460000     0.814780650000     0.006120680000     0.061972   
C115     C      0.233302460000     0.814780650000     0.506120680000     0.061972   
C115     C      0.733302460000     0.314780650000     0.006120680000     0.061972   
C115     C      0.733302460000     0.314780650000     0.506120680000     0.061972   
C115     C      0.733302460000     0.814780650000     0.006120680000     0.061972   
C115     C      0.733302460000     0.814780650000     0.506120680000     0.061972   
C116     C      0.337657250000     0.051725245000     0.318551780000    -0.006525   
C116     C      0.337657250000     0.051725245000     0.818551780000    -0.006525   
C116     C      0.337657250000     0.551725245000     0.318551780000    -0.006525   
C116     C      0.337657250000     0.551725245000     0.818551780000    -0.006525   
C116     C      0.837657250000     0.051725245000     0.318551780000    -0.006525   
C116     C      0.837657250000     0.051725245000     0.818551780000    -0.006525   
C116     C      0.837657250000     0.551725245000     0.318551780000    -0.006525   
C116     C      0.837657250000     0.551725245000     0.818551780000    -0.006525   
C117     C      0.171977730000     0.136451515000     0.096363250000    -0.080526   
C117     C      0.171977730000     0.136451515000     0.596363250000    -0.080526   
C117     C      0.171977730000     0.636451515000     0.096363250000    -0.080526   
C117     C      0.171977730000     0.636451515000     0.596363250000    -0.080526   
C117     C      0.671977730000     0.136451515000     0.096363250000    -0.080526   
C117     C      0.671977730000     0.136451515000     0.596363250000    -0.080526   
C117     C      0.671977730000     0.636451515000     0.096363250000    -0.080526   
C117     C      0.671977730000     0.636451515000     0.596363250000    -0.080526   
C118     C      0.204670520000     0.128203170000     0.003775655000    -0.02367    
C118     C      0.204670520000     0.128203170000     0.503775655000    -0.02367    
C118     C      0.204670520000     0.628203170000     0.003775655000    -0.02367    
C118     C      0.204670520000     0.628203170000     0.503775655000    -0.02367    
C118     C      0.704670520000     0.128203170000     0.003775655000    -0.02367    
C118     C      0.704670520000     0.128203170000     0.503775655000    -0.02367    
C118     C      0.704670520000     0.628203170000     0.003775655000    -0.02367    
C118     C      0.704670520000     0.628203170000     0.503775655000    -0.02367    
C119     C      0.313215000000     0.062757575000     0.407395000000     0.011882   
C119     C      0.313215000000     0.062757575000     0.907395000000     0.011882   
C119     C      0.313215000000     0.562757575000     0.407395000000     0.011882   
C119     C      0.313215000000     0.562757575000     0.907395000000     0.011882   
C119     C      0.813215000000     0.062757575000     0.407395000000     0.011882   
C119     C      0.813215000000     0.062757575000     0.907395000000     0.011882   
C119     C      0.813215000000     0.562757575000     0.407395000000     0.011882   
C119     C      0.813215000000     0.562757575000     0.907395000000     0.011882   
C120     C      0.186265450000     0.138567450000     0.033328235000    -0.037709   
C120     C      0.186265450000     0.138567450000     0.533328235000    -0.037709   
C120     C      0.186265450000     0.638567450000     0.033328235000    -0.037709   
C120     C      0.186265450000     0.638567450000     0.533328235000    -0.037709   
C120     C      0.686265450000     0.138567450000     0.033328235000    -0.037709   
C120     C      0.686265450000     0.138567450000     0.533328235000    -0.037709   
C120     C      0.686265450000     0.638567450000     0.033328235000    -0.037709   
C120     C      0.686265450000     0.638567450000     0.533328235000    -0.037709   
C121     C      0.330687400000     0.054078745000     0.376826350000    -0.024396   
C121     C      0.330687400000     0.054078745000     0.876826350000    -0.024396   
C121     C      0.330687400000     0.554078745000     0.376826350000    -0.024396   
C121     C      0.330687400000     0.554078745000     0.876826350000    -0.024396   
C121     C      0.830687400000     0.054078745000     0.376826350000    -0.024396   
C121     C      0.830687400000     0.054078745000     0.876826350000    -0.024396   
C121     C      0.830687400000     0.554078745000     0.376826350000    -0.024396   
C121     C      0.830687400000     0.554078745000     0.876826350000    -0.024396   
C122     C      0.191348775000     0.124308290000     0.065195380000    -0.112262   
C122     C      0.191348775000     0.124308290000     0.565195380000    -0.112262   
C122     C      0.191348775000     0.624308290000     0.065195380000    -0.112262   
C122     C      0.191348775000     0.624308290000     0.565195380000    -0.112262   
C122     C      0.691348775000     0.124308290000     0.065195380000    -0.112262   
C122     C      0.691348775000     0.124308290000     0.565195380000    -0.112262   
C122     C      0.691348775000     0.624308290000     0.065195380000    -0.112262   
C122     C      0.691348775000     0.624308290000     0.565195380000    -0.112262   
C123     C      0.318186520000     0.062157095000     0.350805135000     3.13075    
C123     C      0.318186520000     0.062157095000     0.850805135000     3.13075    
C123     C      0.318186520000     0.562157095000     0.350805135000     3.13075    
C123     C      0.318186520000     0.562157095000     0.850805135000     3.13075    
C123     C      0.818186520000     0.062157095000     0.350805135000     3.13075    
C123     C      0.818186520000     0.062157095000     0.850805135000     3.13075    
C123     C      0.818186520000     0.562157095000     0.350805135000     3.13075    
C123     C      0.818186520000     0.562157095000     0.850805135000     3.13075    
C124     C      0.215721650000     0.098508880000     0.066313980000    -0.053091   
C124     C      0.215721650000     0.098508880000     0.566313980000    -0.053091   
C124     C      0.215721650000     0.598508880000     0.066313980000    -0.053091   
C124     C      0.215721650000     0.598508880000     0.566313980000    -0.053091   
C124     C      0.715721650000     0.098508880000     0.066313980000    -0.053091   
C124     C      0.715721650000     0.098508880000     0.566313980000    -0.053091   
C124     C      0.715721650000     0.598508880000     0.066313980000    -0.053091   
C124     C      0.715721650000     0.598508880000     0.566313980000    -0.053091   
C125     C      0.287858150000     0.081037930000     0.355524630000    -0.13817    
C125     C      0.287858150000     0.081037930000     0.855524630000    -0.13817    
C125     C      0.287858150000     0.581037930000     0.355524630000    -0.13817    
C125     C      0.287858150000     0.581037930000     0.855524630000    -0.13817    
C125     C      0.787858150000     0.081037930000     0.355524630000    -0.13817    
C125     C      0.787858150000     0.081037930000     0.855524630000    -0.13817    
C125     C      0.787858150000     0.581037930000     0.355524630000    -0.13817    
C125     C      0.787858150000     0.581037930000     0.855524630000    -0.13817    
C126     C      0.235951035000     0.090299785000     0.035055220000    -0.026051   
C126     C      0.235951035000     0.090299785000     0.535055220000    -0.026051   
C126     C      0.235951035000     0.590299785000     0.035055220000    -0.026051   
C126     C      0.235951035000     0.590299785000     0.535055220000    -0.026051   
C126     C      0.735951035000     0.090299785000     0.035055220000    -0.026051   
C126     C      0.735951035000     0.090299785000     0.535055220000    -0.026051   
C126     C      0.735951035000     0.590299785000     0.035055220000    -0.026051   
C126     C      0.735951035000     0.590299785000     0.535055220000    -0.026051   
C127     C      0.271668435000     0.091903820000     0.385487950000    -0.155099   
C127     C      0.271668435000     0.091903820000     0.885487950000    -0.155099   
C127     C      0.271668435000     0.591903820000     0.385487950000    -0.155099   
C127     C      0.271668435000     0.591903820000     0.885487950000    -0.155099   
C127     C      0.771668435000     0.091903820000     0.385487950000    -0.155099   
C127     C      0.771668435000     0.091903820000     0.885487950000    -0.155099   
C127     C      0.771668435000     0.591903820000     0.385487950000    -0.155099   
C127     C      0.771668435000     0.591903820000     0.885487950000    -0.155099   
C128     C      0.229928950000     0.104893195000     0.003931525000     0.901325   
C128     C      0.229928950000     0.104893195000     0.503931525000     0.901325   
C128     C      0.229928950000     0.604893195000     0.003931525000     0.901325   
C128     C      0.229928950000     0.604893195000     0.503931525000     0.901325   
C128     C      0.729928950000     0.104893195000     0.003931525000     0.901325   
C128     C      0.729928950000     0.104893195000     0.503931525000     0.901325   
C128     C      0.729928950000     0.604893195000     0.003931525000     0.901325   
C128     C      0.729928950000     0.604893195000     0.503931525000     0.901325   
C129     C      0.283565650000     0.080856950000     0.412513650000     0.524468   
C129     C      0.283565650000     0.080856950000     0.912513650000     0.524468   
C129     C      0.283565650000     0.580856950000     0.412513650000     0.524468   
C129     C      0.283565650000     0.580856950000     0.912513650000     0.524468   
C129     C      0.783565650000     0.080856950000     0.412513650000     0.524468   
C129     C      0.783565650000     0.080856950000     0.912513650000     0.524468   
C129     C      0.783565650000     0.580856950000     0.412513650000     0.524468   
C129     C      0.783565650000     0.580856950000     0.912513650000     0.524468   
C130     C      0.249460310000     0.096151560000     0.471892950000     0.05188    
C130     C      0.249460310000     0.096151560000     0.971892950000     0.05188    
C130     C      0.249460310000     0.596151560000     0.471892950000     0.05188    
C130     C      0.249460310000     0.596151560000     0.971892950000     0.05188    
C130     C      0.749460310000     0.096151560000     0.471892950000     0.05188    
C130     C      0.749460310000     0.096151560000     0.971892950000     0.05188    
C130     C      0.749460310000     0.596151560000     0.471892950000     0.05188    
C130     C      0.749460310000     0.596151560000     0.971892950000     0.05188    
C131     C      0.265586950000     0.088675775000     0.445341600000    -0.127827   
C131     C      0.265586950000     0.088675775000     0.945341600000    -0.127827   
C131     C      0.265586950000     0.588675775000     0.445341600000    -0.127827   
C131     C      0.265586950000     0.588675775000     0.945341600000    -0.127827   
C131     C      0.765586950000     0.088675775000     0.445341600000    -0.127827   
C131     C      0.765586950000     0.088675775000     0.945341600000    -0.127827   
C131     C      0.765586950000     0.588675775000     0.445341600000    -0.127827   
C131     C      0.765586950000     0.588675775000     0.945341600000    -0.127827   
C132     C      0.194631500000     0.052648145000     0.125668465000    -0.18883    
C132     C      0.194631500000     0.052648145000     0.625668465000    -0.18883    
C132     C      0.194631500000     0.552648145000     0.125668465000    -0.18883    
C132     C      0.194631500000     0.552648145000     0.625668465000    -0.18883    
C132     C      0.694631500000     0.052648145000     0.125668465000    -0.18883    
C132     C      0.694631500000     0.052648145000     0.625668465000    -0.18883    
C132     C      0.694631500000     0.552648145000     0.125668465000    -0.18883    
C132     C      0.694631500000     0.552648145000     0.625668465000    -0.18883    
C133     C      0.246648460000     0.066461025000     0.341630815000     0.120163   
C133     C      0.246648460000     0.066461025000     0.841630815000     0.120163   
C133     C      0.246648460000     0.566461025000     0.341630815000     0.120163   
C133     C      0.246648460000     0.566461025000     0.841630815000     0.120163   
C133     C      0.746648460000     0.066461025000     0.341630815000     0.120163   
C133     C      0.746648460000     0.066461025000     0.841630815000     0.120163   
C133     C      0.746648460000     0.566461025000     0.341630815000     0.120163   
C133     C      0.746648460000     0.566461025000     0.841630815000     0.120163   
C134     C      0.265044420000     0.066903750000     0.034830270000     0.238401   
C134     C      0.265044420000     0.066903750000     0.534830270000     0.238401   
C134     C      0.265044420000     0.566903750000     0.034830270000     0.238401   
C134     C      0.265044420000     0.566903750000     0.534830270000     0.238401   
C134     C      0.765044420000     0.066903750000     0.034830270000     0.238401   
C134     C      0.765044420000     0.066903750000     0.534830270000     0.238401   
C134     C      0.765044420000     0.566903750000     0.034830270000     0.238401   
C134     C      0.765044420000     0.566903750000     0.534830270000     0.238401   
C135     C      0.296535730000     0.085283740000     0.026136935000    -0.359665   
C135     C      0.296535730000     0.085283740000     0.526136935000    -0.359665   
C135     C      0.296535730000     0.585283740000     0.026136935000    -0.359665   
C135     C      0.296535730000     0.585283740000     0.526136935000    -0.359665   
C135     C      0.796535730000     0.085283740000     0.026136935000    -0.359665   
C135     C      0.796535730000     0.085283740000     0.526136935000    -0.359665   
C135     C      0.796535730000     0.585283740000     0.026136935000    -0.359665   
C135     C      0.796535730000     0.585283740000     0.526136935000    -0.359665   
C136     C      0.242794620000     0.116202215000     0.388719230000    -0.782066   
C136     C      0.242794620000     0.116202215000     0.888719230000    -0.782066   
C136     C      0.242794620000     0.616202215000     0.388719230000    -0.782066   
C136     C      0.242794620000     0.616202215000     0.888719230000    -0.782066   
C136     C      0.742794620000     0.116202215000     0.388719230000    -0.782066   
C136     C      0.742794620000     0.116202215000     0.888719230000    -0.782066   
C136     C      0.742794620000     0.616202215000     0.388719230000    -0.782066   
C136     C      0.742794620000     0.616202215000     0.888719230000    -0.782066   
C137     C      0.255798130000     0.149843810000     0.381203620000     0.189609   
C137     C      0.255798130000     0.149843810000     0.881203620000     0.189609   
C137     C      0.255798130000     0.649843810000     0.381203620000     0.189609   
C137     C      0.255798130000     0.649843810000     0.881203620000     0.189609   
C137     C      0.755798130000     0.149843810000     0.381203620000     0.189609   
C137     C      0.755798130000     0.149843810000     0.881203620000     0.189609   
C137     C      0.755798130000     0.649843810000     0.381203620000     0.189609   
C137     C      0.755798130000     0.649843810000     0.881203620000     0.189609   
C138     C      0.442228700000     0.400164650000     0.335203900000     0.261832   
C138     C      0.442228700000     0.400164650000     0.835203900000     0.261832   
C138     C      0.442228700000     0.900164650000     0.335203900000     0.261832   
C138     C      0.442228700000     0.900164650000     0.835203900000     0.261832   
C138     C      0.942228700000     0.400164650000     0.335203900000     0.261832   
C138     C      0.942228700000     0.400164650000     0.835203900000     0.261832   
C138     C      0.942228700000     0.900164650000     0.335203900000     0.261832   
C138     C      0.942228700000     0.900164650000     0.835203900000     0.261832   
C139     C      0.068031185000     0.288603125000     0.077315875000    -0.101042   
C139     C      0.068031185000     0.288603125000     0.577315875000    -0.101042   
C139     C      0.068031185000     0.788603125000     0.077315875000    -0.101042   
C139     C      0.068031185000     0.788603125000     0.577315875000    -0.101042   
C139     C      0.568031185000     0.288603125000     0.077315875000    -0.101042   
C139     C      0.568031185000     0.288603125000     0.577315875000    -0.101042   
C139     C      0.568031185000     0.788603125000     0.077315875000    -0.101042   
C139     C      0.568031185000     0.788603125000     0.577315875000    -0.101042   
C140     C      0.044874210000     0.296405650000     0.167584500000    -0.152231   
C140     C      0.044874210000     0.296405650000     0.667584500000    -0.152231   
C140     C      0.044874210000     0.796405650000     0.167584500000    -0.152231   
C140     C      0.044874210000     0.796405650000     0.667584500000    -0.152231   
C140     C      0.544874210000     0.296405650000     0.167584500000    -0.152231   
C140     C      0.544874210000     0.296405650000     0.667584500000    -0.152231   
C140     C      0.544874210000     0.796405650000     0.167584500000    -0.152231   
C140     C      0.544874210000     0.796405650000     0.667584500000    -0.152231   
C141     C      0.470983250000     0.389351600000     0.244487350000     0.024835   
C141     C      0.470983250000     0.389351600000     0.744487350000     0.024835   
C141     C      0.470983250000     0.889351600000     0.244487350000     0.024835   
C141     C      0.470983250000     0.889351600000     0.744487350000     0.024835   
C141     C      0.970983250000     0.389351600000     0.244487350000     0.024835   
C141     C      0.970983250000     0.389351600000     0.744487350000     0.024835   
C141     C      0.970983250000     0.889351600000     0.244487350000     0.024835   
C141     C      0.970983250000     0.889351600000     0.744487350000     0.024835   
C142     C      0.057740590000     0.284766950000     0.139220600000     0.027878   
C142     C      0.057740590000     0.284766950000     0.639220600000     0.027878   
C142     C      0.057740590000     0.784766950000     0.139220600000     0.027878   
C142     C      0.057740590000     0.784766950000     0.639220600000     0.027878   
C142     C      0.557740590000     0.284766950000     0.139220600000     0.027878   
C142     C      0.557740590000     0.284766950000     0.639220600000     0.027878   
C142     C      0.557740590000     0.784766950000     0.139220600000     0.027878   
C142     C      0.557740590000     0.784766950000     0.639220600000     0.027878   
C143     C      0.456699850000     0.402528820000     0.271901350000    -0.067169   
C143     C      0.456699850000     0.402528820000     0.771901350000    -0.067169   
C143     C      0.456699850000     0.902528820000     0.271901350000    -0.067169   
C143     C      0.456699850000     0.902528820000     0.771901350000    -0.067169   
C143     C      0.956699850000     0.402528820000     0.271901350000    -0.067169   
C143     C      0.956699850000     0.402528820000     0.771901350000    -0.067169   
C143     C      0.956699850000     0.902528820000     0.271901350000    -0.067169   
C143     C      0.956699850000     0.902528820000     0.771901350000    -0.067169   
C144     C      0.052562045000     0.301755700000     0.107618140000    -0.148259   
C144     C      0.052562045000     0.301755700000     0.607618140000    -0.148259   
C144     C      0.052562045000     0.801755700000     0.107618140000    -0.148259   
C144     C      0.052562045000     0.801755700000     0.607618140000    -0.148259   
C144     C      0.552562045000     0.301755700000     0.107618140000    -0.148259   
C144     C      0.552562045000     0.301755700000     0.607618140000    -0.148259   
C144     C      0.552562045000     0.801755700000     0.107618140000    -0.148259   
C144     C      0.552562045000     0.801755700000     0.607618140000    -0.148259   
C145     C      0.457769630000     0.385687100000     0.305741450000    -0.10269    
C145     C      0.457769630000     0.385687100000     0.805741450000    -0.10269    
C145     C      0.457769630000     0.885687100000     0.305741450000    -0.10269    
C145     C      0.457769630000     0.885687100000     0.805741450000    -0.10269    
C145     C      0.957769630000     0.385687100000     0.305741450000    -0.10269    
C145     C      0.957769630000     0.385687100000     0.805741450000    -0.10269    
C145     C      0.957769630000     0.885687100000     0.305741450000    -0.10269    
C145     C      0.957769630000     0.885687100000     0.805741450000    -0.10269    
C146     C      0.033454490000     0.331450450000     0.105619135000    -0.262331   
C146     C      0.033454490000     0.331450450000     0.605619135000    -0.262331   
C146     C      0.033454490000     0.831450450000     0.105619135000    -0.262331   
C146     C      0.033454490000     0.831450450000     0.605619135000    -0.262331   
C146     C      0.533454490000     0.331450450000     0.105619135000    -0.262331   
C146     C      0.533454490000     0.331450450000     0.605619135000    -0.262331   
C146     C      0.533454490000     0.831450450000     0.105619135000    -0.262331   
C146     C      0.533454490000     0.831450450000     0.605619135000    -0.262331   
C147     C      0.473639350000     0.354306670000     0.311372450000     0.313825   
C147     C      0.473639350000     0.354306670000     0.811372450000     0.313825   
C147     C      0.473639350000     0.854306670000     0.311372450000     0.313825   
C147     C      0.473639350000     0.854306670000     0.811372450000     0.313825   
C147     C      0.973639350000     0.354306670000     0.311372450000     0.313825   
C147     C      0.973639350000     0.354306670000     0.811372450000     0.313825   
C147     C      0.973639350000     0.854306670000     0.311372450000     0.313825   
C147     C      0.973639350000     0.854306670000     0.811372450000     0.313825   
C148     C      0.021352095000     0.343292250000     0.134411780000    -0.035969   
C148     C      0.021352095000     0.343292250000     0.634411780000    -0.035969   
C148     C      0.021352095000     0.843292250000     0.134411780000    -0.035969   
C148     C      0.021352095000     0.843292250000     0.634411780000    -0.035969   
C148     C      0.521352095000     0.343292250000     0.134411780000    -0.035969   
C148     C      0.521352095000     0.343292250000     0.634411780000    -0.035969   
C148     C      0.521352095000     0.843292250000     0.134411780000    -0.035969   
C148     C      0.521352095000     0.843292250000     0.634411780000    -0.035969   
C149     C      0.490195630000     0.342320025000     0.282426450000    -0.149259   
C149     C      0.490195630000     0.342320025000     0.782426450000    -0.149259   
C149     C      0.490195630000     0.842320025000     0.282426450000    -0.149259   
C149     C      0.490195630000     0.842320025000     0.782426450000    -0.149259   
C149     C      0.990195630000     0.342320025000     0.282426450000    -0.149259   
C149     C      0.990195630000     0.342320025000     0.782426450000    -0.149259   
C149     C      0.990195630000     0.842320025000     0.282426450000    -0.149259   
C149     C      0.990195630000     0.842320025000     0.782426450000    -0.149259   
C150     C      0.026731180000     0.325221420000     0.165679620000     0.296615   
C150     C      0.026731180000     0.325221420000     0.665679620000     0.296615   
C150     C      0.026731180000     0.825221420000     0.165679620000     0.296615   
C150     C      0.026731180000     0.825221420000     0.665679620000     0.296615   
C150     C      0.526731180000     0.325221420000     0.165679620000     0.296615   
C150     C      0.526731180000     0.325221420000     0.665679620000     0.296615   
C150     C      0.526731180000     0.825221420000     0.165679620000     0.296615   
C150     C      0.526731180000     0.825221420000     0.665679620000     0.296615   
C151     C      0.488113200000     0.359828550000     0.249173210000     0.304625   
C151     C      0.488113200000     0.359828550000     0.749173210000     0.304625   
C151     C      0.488113200000     0.859828550000     0.249173210000     0.304625   
C151     C      0.488113200000     0.859828550000     0.749173210000     0.304625   
C151     C      0.988113200000     0.359828550000     0.249173210000     0.304625   
C151     C      0.988113200000     0.359828550000     0.749173210000     0.304625   
C151     C      0.988113200000     0.859828550000     0.249173210000     0.304625   
C151     C      0.988113200000     0.859828550000     0.749173210000     0.304625   
C152     C      0.013867950000     0.336526150000     0.195808300000    -0.160361   
C152     C      0.013867950000     0.336526150000     0.695808300000    -0.160361   
C152     C      0.013867950000     0.836526150000     0.195808300000    -0.160361   
C152     C      0.013867950000     0.836526150000     0.695808300000    -0.160361   
C152     C      0.513867950000     0.336526150000     0.195808300000    -0.160361   
C152     C      0.513867950000     0.336526150000     0.695808300000    -0.160361   
C152     C      0.513867950000     0.836526150000     0.195808300000    -0.160361   
C152     C      0.513867950000     0.836526150000     0.695808300000    -0.160361   
C153     C      0.002405310000     0.347213180000     0.219957725000     0.063131   
C153     C      0.002405310000     0.347213180000     0.719957725000     0.063131   
C153     C      0.002405310000     0.847213180000     0.219957725000     0.063131   
C153     C      0.002405310000     0.847213180000     0.719957725000     0.063131   
C153     C      0.502405310000     0.347213180000     0.219957725000     0.063131   
C153     C      0.502405310000     0.347213180000     0.719957725000     0.063131   
C153     C      0.502405310000     0.847213180000     0.219957725000     0.063131   
C153     C      0.502405310000     0.847213180000     0.719957725000     0.063131   
C154     C      0.496773650000     0.338541565000     0.076127345000    -0.101142   
C154     C      0.496773650000     0.338541565000     0.576127345000    -0.101142   
C154     C      0.496773650000     0.838541565000     0.076127345000    -0.101142   
C154     C      0.496773650000     0.838541565000     0.576127345000    -0.101142   
C154     C      0.996773650000     0.338541565000     0.076127345000    -0.101142   
C154     C      0.996773650000     0.338541565000     0.576127345000    -0.101142   
C154     C      0.996773650000     0.838541565000     0.076127345000    -0.101142   
C154     C      0.996773650000     0.838541565000     0.576127345000    -0.101142   
C155     C      0.442335200000     0.311603850000     0.370938450000    -0.245016   
C155     C      0.442335200000     0.311603850000     0.870938450000    -0.245016   
C155     C      0.442335200000     0.811603850000     0.370938450000    -0.245016   
C155     C      0.442335200000     0.811603850000     0.870938450000    -0.245016   
C155     C      0.942335200000     0.311603850000     0.370938450000    -0.245016   
C155     C      0.942335200000     0.311603850000     0.870938450000    -0.245016   
C155     C      0.942335200000     0.811603850000     0.370938450000    -0.245016   
C155     C      0.942335200000     0.811603850000     0.870938450000    -0.245016   
C156     C      0.004294120000     0.376209350000     0.131270100000    -0.289511   
C156     C      0.004294120000     0.376209350000     0.631270100000    -0.289511   
C156     C      0.004294120000     0.876209350000     0.131270100000    -0.289511   
C156     C      0.004294120000     0.876209350000     0.631270100000    -0.289511   
C156     C      0.504294120000     0.376209350000     0.131270100000    -0.289511   
C156     C      0.504294120000     0.376209350000     0.631270100000    -0.289511   
C156     C      0.504294120000     0.876209350000     0.131270100000    -0.289511   
C156     C      0.504294120000     0.876209350000     0.631270100000    -0.289511   
C157     C      0.029754480000     0.402552425000     0.121295325000    -0.078767   
C157     C      0.029754480000     0.402552425000     0.621295325000    -0.078767   
C157     C      0.029754480000     0.902552425000     0.121295325000    -0.078767   
C157     C      0.029754480000     0.902552425000     0.621295325000    -0.078767   
C157     C      0.529754480000     0.402552425000     0.121295325000    -0.078767   
C157     C      0.529754480000     0.402552425000     0.621295325000    -0.078767   
C157     C      0.529754480000     0.902552425000     0.121295325000    -0.078767   
C157     C      0.529754480000     0.902552425000     0.621295325000    -0.078767   
C158     C      0.009872135000     0.310816100000     0.287086600000    -0.0551     
C158     C      0.009872135000     0.310816100000     0.787086600000    -0.0551     
C158     C      0.009872135000     0.810816100000     0.287086600000    -0.0551     
C158     C      0.009872135000     0.810816100000     0.787086600000    -0.0551     
C158     C      0.509872135000     0.310816100000     0.287086600000    -0.0551     
C158     C      0.509872135000     0.310816100000     0.787086600000    -0.0551     
C158     C      0.509872135000     0.810816100000     0.287086600000    -0.0551     
C158     C      0.509872135000     0.810816100000     0.787086600000    -0.0551     
C159     C      0.047458035000     0.318029400000     0.275168200000    -0.053056   
C159     C      0.047458035000     0.318029400000     0.775168200000    -0.053056   
C159     C      0.047458035000     0.818029400000     0.275168200000    -0.053056   
C159     C      0.047458035000     0.818029400000     0.775168200000    -0.053056   
C159     C      0.547458035000     0.318029400000     0.275168200000    -0.053056   
C159     C      0.547458035000     0.318029400000     0.775168200000    -0.053056   
C159     C      0.547458035000     0.818029400000     0.275168200000    -0.053056   
C159     C      0.547458035000     0.818029400000     0.775168200000    -0.053056   
C160     C      0.479940115000     0.030894485000     0.286373350000    -0.044825   
C160     C      0.479940115000     0.030894485000     0.786373350000    -0.044825   
C160     C      0.479940115000     0.530894485000     0.286373350000    -0.044825   
C160     C      0.479940115000     0.530894485000     0.786373350000    -0.044825   
C160     C      0.979940115000     0.030894485000     0.286373350000    -0.044825   
C160     C      0.979940115000     0.030894485000     0.786373350000    -0.044825   
C160     C      0.979940115000     0.530894485000     0.286373350000    -0.044825   
C160     C      0.979940115000     0.530894485000     0.786373350000    -0.044825   
C161     C      0.031279625000     0.158140950000     0.125543120000    -0.065561   
C161     C      0.031279625000     0.158140950000     0.625543120000    -0.065561   
C161     C      0.031279625000     0.658140950000     0.125543120000    -0.065561   
C161     C      0.031279625000     0.658140950000     0.625543120000    -0.065561   
C161     C      0.531279625000     0.158140950000     0.125543120000    -0.065561   
C161     C      0.531279625000     0.158140950000     0.625543120000    -0.065561   
C161     C      0.531279625000     0.658140950000     0.125543120000    -0.065561   
C161     C      0.531279625000     0.658140950000     0.625543120000    -0.065561   
C162     C      0.020381130000     0.130826580000     0.159953625000    -0.158724   
C162     C      0.020381130000     0.130826580000     0.659953625000    -0.158724   
C162     C      0.020381130000     0.630826580000     0.159953625000    -0.158724   
C162     C      0.020381130000     0.630826580000     0.659953625000    -0.158724   
C162     C      0.520381130000     0.130826580000     0.159953625000    -0.158724   
C162     C      0.520381130000     0.130826580000     0.659953625000    -0.158724   
C162     C      0.520381130000     0.630826580000     0.159953625000    -0.158724   
C162     C      0.520381130000     0.630826580000     0.659953625000    -0.158724   
C163     C      0.011157295000     0.107865950000     0.188951015000     0.212369   
C163     C      0.011157295000     0.107865950000     0.688951015000     0.212369   
C163     C      0.011157295000     0.607865950000     0.188951015000     0.212369   
C163     C      0.011157295000     0.607865950000     0.688951015000     0.212369   
C163     C      0.511157295000     0.107865950000     0.188951015000     0.212369   
C163     C      0.511157295000     0.107865950000     0.688951015000     0.212369   
C163     C      0.511157295000     0.607865950000     0.188951015000     0.212369   
C163     C      0.511157295000     0.607865950000     0.688951015000     0.212369   
C164     C      0.000304540000     0.081052660000     0.222863225000    -0.041291   
C164     C      0.000304540000     0.081052660000     0.722863225000    -0.041291   
C164     C      0.000304540000     0.581052660000     0.222863225000    -0.041291   
C164     C      0.000304540000     0.581052660000     0.722863225000    -0.041291   
C164     C      0.500304540000     0.081052660000     0.222863225000    -0.041291   
C164     C      0.500304540000     0.081052660000     0.722863225000    -0.041291   
C164     C      0.500304540000     0.581052660000     0.222863225000    -0.041291   
C164     C      0.500304540000     0.581052660000     0.722863225000    -0.041291   
C165     C      0.490975020000     0.058132575000     0.251899000000    -0.017478   
C165     C      0.490975020000     0.058132575000     0.751899000000    -0.017478   
C165     C      0.490975020000     0.558132575000     0.251899000000    -0.017478   
C165     C      0.490975020000     0.558132575000     0.751899000000    -0.017478   
C165     C      0.990975020000     0.058132575000     0.251899000000    -0.017478   
C165     C      0.990975020000     0.058132575000     0.751899000000    -0.017478   
C165     C      0.990975020000     0.558132575000     0.251899000000    -0.017478   
C165     C      0.990975020000     0.558132575000     0.751899000000    -0.017478   
C166     C      0.454425550000     0.415361850000     0.341283600000    -0.019217   
C166     C      0.454425550000     0.415361850000     0.841283600000    -0.019217   
C166     C      0.454425550000     0.915361850000     0.341283600000    -0.019217   
C166     C      0.454425550000     0.915361850000     0.841283600000    -0.019217   
C166     C      0.954425550000     0.415361850000     0.341283600000    -0.019217   
C166     C      0.954425550000     0.415361850000     0.841283600000    -0.019217   
C166     C      0.954425550000     0.915361850000     0.341283600000    -0.019217   
C166     C      0.954425550000     0.915361850000     0.841283600000    -0.019217   
C167     C      0.057206710000     0.291321935000     0.071776985000     0.011156   
C167     C      0.057206710000     0.291321935000     0.571776985000     0.011156   
C167     C      0.057206710000     0.791321935000     0.071776985000     0.011156   
C167     C      0.057206710000     0.791321935000     0.571776985000     0.011156   
C167     C      0.557206710000     0.291321935000     0.071776985000     0.011156   
C167     C      0.557206710000     0.291321935000     0.571776985000     0.011156   
C167     C      0.557206710000     0.791321935000     0.071776985000     0.011156   
C167     C      0.557206710000     0.791321935000     0.571776985000     0.011156   
C168     C      0.028606115000     0.361767700000     0.444499285000     0.045969   
C168     C      0.028606115000     0.361767700000     0.944499285000     0.045969   
C168     C      0.028606115000     0.861767700000     0.444499285000     0.045969   
C168     C      0.028606115000     0.861767700000     0.944499285000     0.045969   
C168     C      0.528606115000     0.361767700000     0.444499285000     0.045969   
C168     C      0.528606115000     0.361767700000     0.944499285000     0.045969   
C168     C      0.528606115000     0.861767700000     0.444499285000     0.045969   
C168     C      0.528606115000     0.861767700000     0.944499285000     0.045969   
C169     C      0.488364550000     0.408304450000     0.466678250000    -0.050657   
C169     C      0.488364550000     0.408304450000     0.966678250000    -0.050657   
C169     C      0.488364550000     0.908304450000     0.466678250000    -0.050657   
C169     C      0.488364550000     0.908304450000     0.966678250000    -0.050657   
C169     C      0.988364550000     0.408304450000     0.466678250000    -0.050657   
C169     C      0.988364550000     0.408304450000     0.966678250000    -0.050657   
C169     C      0.988364550000     0.908304450000     0.466678250000    -0.050657   
C169     C      0.988364550000     0.908304450000     0.966678250000    -0.050657   
C170     C      0.489086865000     0.360808520000     0.462006900000    -0.710306   
C170     C      0.489086865000     0.360808520000     0.962006900000    -0.710306   
C170     C      0.489086865000     0.860808520000     0.462006900000    -0.710306   
C170     C      0.489086865000     0.860808520000     0.962006900000    -0.710306   
C170     C      0.989086865000     0.360808520000     0.462006900000    -0.710306   
C170     C      0.989086865000     0.360808520000     0.962006900000    -0.710306   
C170     C      0.989086865000     0.860808520000     0.462006900000    -0.710306   
C170     C      0.989086865000     0.860808520000     0.962006900000    -0.710306   
C171     C      0.028408490000     0.409113900000     0.449355600000     0.173105   
C171     C      0.028408490000     0.409113900000     0.949355600000     0.173105   
C171     C      0.028408490000     0.909113900000     0.449355600000     0.173105   
C171     C      0.028408490000     0.909113900000     0.949355600000     0.173105   
C171     C      0.528408490000     0.409113900000     0.449355600000     0.173105   
C171     C      0.528408490000     0.409113900000     0.949355600000     0.173105   
C171     C      0.528408490000     0.909113900000     0.449355600000     0.173105   
C171     C      0.528408490000     0.909113900000     0.949355600000     0.173105   
C172     C      0.455903700000     0.407843600000     0.399653250000     0.287475   
C172     C      0.455903700000     0.407843600000     0.899653250000     0.287475   
C172     C      0.455903700000     0.907843600000     0.399653250000     0.287475   
C172     C      0.455903700000     0.907843600000     0.899653250000     0.287475   
C172     C      0.955903700000     0.407843600000     0.399653250000     0.287475   
C172     C      0.955903700000     0.407843600000     0.899653250000     0.287475   
C172     C      0.955903700000     0.907843600000     0.399653250000     0.287475   
C172     C      0.955903700000     0.907843600000     0.899653250000     0.287475   
C173     C      0.058981485000     0.335667250000     0.012494025000    -0.509912   
C173     C      0.058981485000     0.335667250000     0.512494025000    -0.509912   
C173     C      0.058981485000     0.835667250000     0.012494025000    -0.509912   
C173     C      0.058981485000     0.835667250000     0.512494025000    -0.509912   
C173     C      0.558981485000     0.335667250000     0.012494025000    -0.509912   
C173     C      0.558981485000     0.335667250000     0.512494025000    -0.509912   
C173     C      0.558981485000     0.835667250000     0.012494025000    -0.509912   
C173     C      0.558981485000     0.835667250000     0.512494025000    -0.509912   
C174     C      0.029928760000     0.398403550000     0.419535280000    -0.067208   
C174     C      0.029928760000     0.398403550000     0.919535280000    -0.067208   
C174     C      0.029928760000     0.898403550000     0.419535280000    -0.067208   
C174     C      0.029928760000     0.898403550000     0.919535280000    -0.067208   
C174     C      0.529928760000     0.398403550000     0.419535280000    -0.067208   
C174     C      0.529928760000     0.398403550000     0.919535280000    -0.067208   
C174     C      0.529928760000     0.898403550000     0.419535280000    -0.067208   
C174     C      0.529928760000     0.898403550000     0.919535280000    -0.067208   
C175     C      0.487297300000     0.371478450000     0.491660565000    -0.141726   
C175     C      0.487297300000     0.371478450000     0.991660565000    -0.141726   
C175     C      0.487297300000     0.871478450000     0.491660565000    -0.141726   
C175     C      0.487297300000     0.871478450000     0.991660565000    -0.141726   
C175     C      0.987297300000     0.371478450000     0.491660565000    -0.141726   
C175     C      0.987297300000     0.371478450000     0.991660565000    -0.141726   
C175     C      0.987297300000     0.871478450000     0.491660565000    -0.141726   
C175     C      0.987297300000     0.871478450000     0.991660565000    -0.141726   
C176     C      0.490496300000     0.397294200000     0.437279500000     5.37862    
C176     C      0.490496300000     0.397294200000     0.937279500000     5.37862    
C176     C      0.490496300000     0.897294200000     0.437279500000     5.37862    
C176     C      0.490496300000     0.897294200000     0.937279500000     5.37862    
C176     C      0.990496300000     0.397294200000     0.437279500000     5.37862    
C176     C      0.990496300000     0.397294200000     0.937279500000     5.37862    
C176     C      0.990496300000     0.897294200000     0.437279500000     5.37862    
C176     C      0.990496300000     0.897294200000     0.937279500000     5.37862    
C177     C      0.026725835000     0.372530730000     0.473937900000    -0.194907   
C177     C      0.026725835000     0.372530730000     0.973937900000    -0.194907   
C177     C      0.026725835000     0.872530730000     0.473937900000    -0.194907   
C177     C      0.026725835000     0.872530730000     0.973937900000    -0.194907   
C177     C      0.526725835000     0.372530730000     0.473937900000    -0.194907   
C177     C      0.526725835000     0.372530730000     0.973937900000    -0.194907   
C177     C      0.526725835000     0.872530730000     0.473937900000    -0.194907   
C177     C      0.526725835000     0.872530730000     0.973937900000    -0.194907   
C178     C      0.470825075000     0.405649950000     0.416878100000    -0.302324   
C178     C      0.470825075000     0.405649950000     0.916878100000    -0.302324   
C178     C      0.470825075000     0.905649950000     0.416878100000    -0.302324   
C178     C      0.470825075000     0.905649950000     0.916878100000    -0.302324   
C178     C      0.970825075000     0.405649950000     0.416878100000    -0.302324   
C178     C      0.970825075000     0.405649950000     0.916878100000    -0.302324   
C178     C      0.970825075000     0.905649950000     0.416878100000    -0.302324   
C178     C      0.970825075000     0.905649950000     0.916878100000    -0.302324   
C179     C      0.045441995000     0.354264450000     0.494627450000     0.812875   
C179     C      0.045441995000     0.354264450000     0.994627450000     0.812875   
C179     C      0.045441995000     0.854264450000     0.494627450000     0.812875   
C179     C      0.045441995000     0.854264450000     0.994627450000     0.812875   
C179     C      0.545441995000     0.354264450000     0.494627450000     0.812875   
C179     C      0.545441995000     0.354264450000     0.994627450000     0.812875   
C179     C      0.545441995000     0.854264450000     0.494627450000     0.812875   
C179     C      0.545441995000     0.854264450000     0.994627450000     0.812875   
C180     C      0.404791830000     0.403205425000     0.392532675000     0.337038   
C180     C      0.404791830000     0.403205425000     0.892532675000     0.337038   
C180     C      0.404791830000     0.903205425000     0.392532675000     0.337038   
C180     C      0.404791830000     0.903205425000     0.892532675000     0.337038   
C180     C      0.904791830000     0.403205425000     0.392532675000     0.337038   
C180     C      0.904791830000     0.403205425000     0.892532675000     0.337038   
C180     C      0.904791830000     0.903205425000     0.392532675000     0.337038   
C180     C      0.904791830000     0.903205425000     0.892532675000     0.337038   
C181     C      0.107520870000     0.303473200000     0.020561515000    -0.146349   
C181     C      0.107520870000     0.303473200000     0.520561515000    -0.146349   
C181     C      0.107520870000     0.803473200000     0.020561515000    -0.146349   
C181     C      0.107520870000     0.803473200000     0.520561515000    -0.146349   
C181     C      0.607520870000     0.303473200000     0.020561515000    -0.146349   
C181     C      0.607520870000     0.303473200000     0.520561515000    -0.146349   
C181     C      0.607520870000     0.803473200000     0.020561515000    -0.146349   
C181     C      0.607520870000     0.803473200000     0.520561515000    -0.146349   
C182     C      0.439721315000     0.406893520000     0.379056635000    -0.159556   
C182     C      0.439721315000     0.406893520000     0.879056635000    -0.159556   
C182     C      0.439721315000     0.906893520000     0.379056635000    -0.159556   
C182     C      0.439721315000     0.906893520000     0.879056635000    -0.159556   
C182     C      0.939721315000     0.406893520000     0.379056635000    -0.159556   
C182     C      0.939721315000     0.406893520000     0.879056635000    -0.159556   
C182     C      0.939721315000     0.906893520000     0.379056635000    -0.159556   
C182     C      0.939721315000     0.906893520000     0.879056635000    -0.159556   
C183     C      0.073496135000     0.311665400000     0.034333825000    -0.641152   
C183     C      0.073496135000     0.311665400000     0.534333825000    -0.641152   
C183     C      0.073496135000     0.811665400000     0.034333825000    -0.641152   
C183     C      0.073496135000     0.811665400000     0.534333825000    -0.641152   
C183     C      0.573496135000     0.311665400000     0.034333825000    -0.641152   
C183     C      0.573496135000     0.311665400000     0.534333825000    -0.641152   
C183     C      0.573496135000     0.811665400000     0.034333825000    -0.641152   
C183     C      0.573496135000     0.811665400000     0.534333825000    -0.641152   
C184     C      0.013061085000     0.415242500000     0.322937000000    -0.150605   
C184     C      0.013061085000     0.415242500000     0.822937000000    -0.150605   
C184     C      0.013061085000     0.915242500000     0.322937000000    -0.150605   
C184     C      0.013061085000     0.915242500000     0.822937000000    -0.150605   
C184     C      0.513061085000     0.415242500000     0.322937000000    -0.150605   
C184     C      0.513061085000     0.415242500000     0.822937000000    -0.150605   
C184     C      0.513061085000     0.915242500000     0.322937000000    -0.150605   
C184     C      0.513061085000     0.915242500000     0.822937000000    -0.150605   
C185     C      0.046394890000     0.424446100000     0.287368835000     1.01664    
C185     C      0.046394890000     0.424446100000     0.787368835000     1.01664    
C185     C      0.046394890000     0.924446100000     0.287368835000     1.01664    
C185     C      0.046394890000     0.924446100000     0.787368835000     1.01664    
C185     C      0.546394890000     0.424446100000     0.287368835000     1.01664    
C185     C      0.546394890000     0.424446100000     0.787368835000     1.01664    
C185     C      0.546394890000     0.924446100000     0.287368835000     1.01664    
C185     C      0.546394890000     0.924446100000     0.787368835000     1.01664    
C186     C      0.002639825000     0.313886000000     0.087752820000    -0.607623   
C186     C      0.002639825000     0.313886000000     0.587752820000    -0.607623   
C186     C      0.002639825000     0.813886000000     0.087752820000    -0.607623   
C186     C      0.002639825000     0.813886000000     0.587752820000    -0.607623   
C186     C      0.502639825000     0.313886000000     0.087752820000    -0.607623   
C186     C      0.502639825000     0.313886000000     0.587752820000    -0.607623   
C186     C      0.502639825000     0.813886000000     0.087752820000    -0.607623   
C186     C      0.502639825000     0.813886000000     0.587752820000    -0.607623   
C187     C      0.468271375000     0.310498250000     0.121304035000    -0.252768   
C187     C      0.468271375000     0.310498250000     0.621304035000    -0.252768   
C187     C      0.468271375000     0.810498250000     0.121304035000    -0.252768   
C187     C      0.468271375000     0.810498250000     0.621304035000    -0.252768   
C187     C      0.968271375000     0.310498250000     0.121304035000    -0.252768   
C187     C      0.968271375000     0.310498250000     0.621304035000    -0.252768   
C187     C      0.968271375000     0.810498250000     0.121304035000    -0.252768   
C187     C      0.968271375000     0.810498250000     0.621304035000    -0.252768   
N188     N      0.197329715000     0.161084590000     0.066480830000    -0.485808   
N188     N      0.197329715000     0.161084590000     0.566480830000    -0.485808   
N188     N      0.197329715000     0.661084590000     0.066480830000    -0.485808   
N188     N      0.197329715000     0.661084590000     0.566480830000    -0.485808   
N188     N      0.697329715000     0.161084590000     0.066480830000    -0.485808   
N188     N      0.697329715000     0.161084590000     0.566480830000    -0.485808   
N188     N      0.697329715000     0.661084590000     0.066480830000    -0.485808   
N188     N      0.697329715000     0.661084590000     0.566480830000    -0.485808   
N189     N      0.168578250000     0.140908910000     0.092782930000    -0.038341   
N189     N      0.168578250000     0.140908910000     0.592782930000    -0.038341   
N189     N      0.168578250000     0.640908910000     0.092782930000    -0.038341   
N189     N      0.168578250000     0.640908910000     0.592782930000    -0.038341   
N189     N      0.668578250000     0.140908910000     0.092782930000    -0.038341   
N189     N      0.668578250000     0.140908910000     0.592782930000    -0.038341   
N189     N      0.668578250000     0.640908910000     0.092782930000    -0.038341   
N189     N      0.668578250000     0.640908910000     0.592782930000    -0.038341   
N190     N      0.342601350000     0.047783265000     0.319258100000    -0.289831   
N190     N      0.342601350000     0.047783265000     0.819258100000    -0.289831   
N190     N      0.342601350000     0.547783265000     0.319258100000    -0.289831   
N190     N      0.342601350000     0.547783265000     0.819258100000    -0.289831   
N190     N      0.842601350000     0.047783265000     0.319258100000    -0.289831   
N190     N      0.842601350000     0.047783265000     0.819258100000    -0.289831   
N190     N      0.842601350000     0.547783265000     0.319258100000    -0.289831   
N190     N      0.842601350000     0.547783265000     0.819258100000    -0.289831   
N191     N      0.313849865000     0.027607575000     0.345560225000     0.100111   
N191     N      0.313849865000     0.027607575000     0.845560225000     0.100111   
N191     N      0.313849865000     0.527607575000     0.345560225000     0.100111   
N191     N      0.313849865000     0.527607575000     0.845560225000     0.100111   
N191     N      0.813849865000     0.027607575000     0.345560225000     0.100111   
N191     N      0.813849865000     0.027607575000     0.845560225000     0.100111   
N191     N      0.813849865000     0.527607575000     0.345560225000     0.100111   
N191     N      0.813849865000     0.527607575000     0.845560225000     0.100111   
N192     N      0.219905450000     0.079319620000     0.098671435000    -0.364994   
N192     N      0.219905450000     0.079319620000     0.598671435000    -0.364994   
N192     N      0.219905450000     0.579319620000     0.098671435000    -0.364994   
N192     N      0.219905450000     0.579319620000     0.598671435000    -0.364994   
N192     N      0.719905450000     0.079319620000     0.098671435000    -0.364994   
N192     N      0.719905450000     0.079319620000     0.598671435000    -0.364994   
N192     N      0.719905450000     0.579319620000     0.098671435000    -0.364994   
N192     N      0.719905450000     0.579319620000     0.598671435000    -0.364994   
N193     N      0.273892075000     0.088932270000     0.330227900000    -0.333502   
N193     N      0.273892075000     0.088932270000     0.830227900000    -0.333502   
N193     N      0.273892075000     0.588932270000     0.330227900000    -0.333502   
N193     N      0.273892075000     0.588932270000     0.830227900000    -0.333502   
N193     N      0.773892075000     0.088932270000     0.330227900000    -0.333502   
N193     N      0.773892075000     0.088932270000     0.830227900000    -0.333502   
N193     N      0.773892075000     0.588932270000     0.330227900000    -0.333502   
N193     N      0.773892075000     0.588932270000     0.830227900000    -0.333502   
N194     N      0.472019300000     0.334273935000     0.346515000000    -0.353123   
N194     N      0.472019300000     0.334273935000     0.846515000000    -0.353123   
N194     N      0.472019300000     0.834273935000     0.346515000000    -0.353123   
N194     N      0.472019300000     0.834273935000     0.846515000000    -0.353123   
N194     N      0.972019300000     0.334273935000     0.346515000000    -0.353123   
N194     N      0.972019300000     0.334273935000     0.846515000000    -0.353123   
N194     N      0.972019300000     0.834273935000     0.346515000000    -0.353123   
N194     N      0.972019300000     0.834273935000     0.846515000000    -0.353123   
N195     N      0.026238125000     0.350168250000     0.075158600000    -0.300059   
N195     N      0.026238125000     0.350168250000     0.575158600000    -0.300059   
N195     N      0.026238125000     0.850168250000     0.075158600000    -0.300059   
N195     N      0.026238125000     0.850168250000     0.575158600000    -0.300059   
N195     N      0.526238125000     0.350168250000     0.075158600000    -0.300059   
N195     N      0.526238125000     0.350168250000     0.575158600000    -0.300059   
N195     N      0.526238125000     0.850168250000     0.075158600000    -0.300059   
N195     N      0.526238125000     0.850168250000     0.575158600000    -0.300059   
N196     N      0.428787750000     0.416610300000     0.332543900000     0.405944   
N196     N      0.428787750000     0.416610300000     0.832543900000     0.405944   
N196     N      0.428787750000     0.916610300000     0.332543900000     0.405944   
N196     N      0.428787750000     0.916610300000     0.832543900000     0.405944   
N196     N      0.928787750000     0.416610300000     0.332543900000     0.405944   
N196     N      0.928787750000     0.416610300000     0.832543900000     0.405944   
N196     N      0.928787750000     0.916610300000     0.332543900000     0.405944   
N196     N      0.928787750000     0.916610300000     0.832543900000     0.405944   
N197     N      0.398160515000     0.409266380000     0.364188050000     2.27777    
N197     N      0.398160515000     0.409266380000     0.864188050000     2.27777    
N197     N      0.398160515000     0.909266380000     0.364188050000     2.27777    
N197     N      0.398160515000     0.909266380000     0.864188050000     2.27777    
N197     N      0.898160515000     0.409266380000     0.364188050000     2.27777    
N197     N      0.898160515000     0.409266380000     0.864188050000     2.27777    
N197     N      0.898160515000     0.909266380000     0.364188050000     2.27777    
N197     N      0.898160515000     0.909266380000     0.864188050000     2.27777    
N198     N      0.112177665000     0.279911815000     0.048451900000    -0.50046    
N198     N      0.112177665000     0.279911815000     0.548451900000    -0.50046    
N198     N      0.112177665000     0.779911815000     0.048451900000    -0.50046    
N198     N      0.112177665000     0.779911815000     0.548451900000    -0.50046    
N198     N      0.612177665000     0.279911815000     0.048451900000    -0.50046    
N198     N      0.612177665000     0.279911815000     0.548451900000    -0.50046    
N198     N      0.612177665000     0.779911815000     0.048451900000    -0.50046    
N198     N      0.612177665000     0.779911815000     0.548451900000    -0.50046    
N199     N      0.081550465000     0.272567950000     0.080095950000    -0.475095   
N199     N      0.081550465000     0.272567950000     0.580095950000    -0.475095   
N199     N      0.081550465000     0.772567950000     0.080095950000    -0.475095   
N199     N      0.081550465000     0.772567950000     0.580095950000    -0.475095   
N199     N      0.581550465000     0.272567950000     0.080095950000    -0.475095   
N199     N      0.581550465000     0.272567950000     0.580095950000    -0.475095   
N199     N      0.581550465000     0.772567950000     0.080095950000    -0.475095   
N199     N      0.581550465000     0.772567950000     0.580095950000    -0.475095   
O200     O      0.237059625000     0.191158085000     0.067200160000    -0.48212    
O200     O      0.237059625000     0.191158085000     0.567200160000    -0.48212    
O200     O      0.237059625000     0.691158085000     0.067200160000    -0.48212    
O200     O      0.237059625000     0.691158085000     0.567200160000    -0.48212    
O200     O      0.737059625000     0.191158085000     0.067200160000    -0.48212    
O200     O      0.737059625000     0.191158085000     0.567200160000    -0.48212    
O200     O      0.737059625000     0.691158085000     0.067200160000    -0.48212    
O200     O      0.737059625000     0.691158085000     0.567200160000    -0.48212    
O201     O      0.257090030000     0.020934180000     0.353765700000     0.285521   
O201     O      0.257090030000     0.020934180000     0.853765700000     0.285521   
O201     O      0.257090030000     0.520934180000     0.353765700000     0.285521   
O201     O      0.257090030000     0.520934180000     0.853765700000     0.285521   
O201     O      0.757090030000     0.020934180000     0.353765700000     0.285521   
O201     O      0.757090030000     0.020934180000     0.853765700000     0.285521   
O201     O      0.757090030000     0.520934180000     0.353765700000     0.285521   
O201     O      0.757090030000     0.520934180000     0.853765700000     0.285521   
O202     O      0.281383065000     0.426483950000     0.359703185000    -0.064699   
O202     O      0.281383065000     0.426483950000     0.859703185000    -0.064699   
O202     O      0.281383065000     0.926483950000     0.359703185000    -0.064699   
O202     O      0.281383065000     0.926483950000     0.859703185000    -0.064699   
O202     O      0.781383065000     0.426483950000     0.359703185000    -0.064699   
O202     O      0.781383065000     0.426483950000     0.859703185000    -0.064699   
O202     O      0.781383065000     0.926483950000     0.359703185000    -0.064699   
O202     O      0.781383065000     0.926483950000     0.859703185000    -0.064699   
O203     O      0.188716710000     0.300016650000     0.065998970000    -0.428864   
O203     O      0.188716710000     0.300016650000     0.565998970000    -0.428864   
O203     O      0.188716710000     0.800016650000     0.065998970000    -0.428864   
O203     O      0.188716710000     0.800016650000     0.565998970000    -0.428864   
O203     O      0.688716710000     0.300016650000     0.065998970000    -0.428864   
O203     O      0.688716710000     0.300016650000     0.565998970000    -0.428864   
O203     O      0.688716710000     0.800016650000     0.065998970000    -0.428864   
O203     O      0.688716710000     0.800016650000     0.565998970000    -0.428864   
O204     O      0.322439650000     0.390340850000     0.347060380000    -0.288303   
O204     O      0.322439650000     0.390340850000     0.847060380000    -0.288303   
O204     O      0.322439650000     0.890340850000     0.347060380000    -0.288303   
O204     O      0.322439650000     0.890340850000     0.847060380000    -0.288303   
O204     O      0.822439650000     0.390340850000     0.347060380000    -0.288303   
O204     O      0.822439650000     0.390340850000     0.847060380000    -0.288303   
O204     O      0.822439650000     0.890340850000     0.347060380000    -0.288303   
O204     O      0.822439650000     0.890340850000     0.847060380000    -0.288303   
O205     O      0.229773330000     0.263873520000     0.053356230000    -0.282294   
O205     O      0.229773330000     0.263873520000     0.553356230000    -0.282294   
O205     O      0.229773330000     0.763873520000     0.053356230000    -0.282294   
O205     O      0.229773330000     0.763873520000     0.553356230000    -0.282294   
O205     O      0.729773330000     0.263873520000     0.053356230000    -0.282294   
O205     O      0.729773330000     0.263873520000     0.553356230000    -0.282294   
O205     O      0.729773330000     0.763873520000     0.053356230000    -0.282294   
O205     O      0.729773330000     0.763873520000     0.553356230000    -0.282294   
O206     O      0.328618230000     0.066601410000     0.291079135000    -0.398045   
O206     O      0.328618230000     0.066601410000     0.791079135000    -0.398045   
O206     O      0.328618230000     0.566601410000     0.291079135000    -0.398045   
O206     O      0.328618230000     0.566601410000     0.791079135000    -0.398045   
O206     O      0.828618230000     0.066601410000     0.291079135000    -0.398045   
O206     O      0.828618230000     0.066601410000     0.791079135000    -0.398045   
O206     O      0.828618230000     0.566601410000     0.291079135000    -0.398045   
O206     O      0.828618230000     0.566601410000     0.791079135000    -0.398045   
O207     O      0.181605100000     0.122452835000     0.123340845000    -0.280631   
O207     O      0.181605100000     0.122452835000     0.623340845000    -0.280631   
O207     O      0.181605100000     0.622452835000     0.123340845000    -0.280631   
O207     O      0.181605100000     0.622452835000     0.623340845000    -0.280631   
O207     O      0.681605100000     0.122452835000     0.123340845000    -0.280631   
O207     O      0.681605100000     0.122452835000     0.623340845000    -0.280631   
O207     O      0.681605100000     0.622452835000     0.123340845000    -0.280631   
O207     O      0.681605100000     0.622452835000     0.623340845000    -0.280631   
O208     O      0.362385150000     0.029233705000     0.320077850000    -1.04076    
O208     O      0.362385150000     0.029233705000     0.820077850000    -1.04076    
O208     O      0.362385150000     0.529233705000     0.320077850000    -1.04076    
O208     O      0.362385150000     0.529233705000     0.820077850000    -1.04076    
O208     O      0.862385150000     0.029233705000     0.320077850000    -1.04076    
O208     O      0.862385150000     0.029233705000     0.820077850000    -1.04076    
O208     O      0.862385150000     0.529233705000     0.320077850000    -1.04076    
O208     O      0.862385150000     0.529233705000     0.820077850000    -1.04076    
O209     O      0.147838190000     0.159820510000     0.094342170000    -0.969062   
O209     O      0.147838190000     0.159820510000     0.594342170000    -0.969062   
O209     O      0.147838190000     0.659820510000     0.094342170000    -0.969062   
O209     O      0.147838190000     0.659820510000     0.594342170000    -0.969062   
O209     O      0.647838190000     0.159820510000     0.094342170000    -0.969062   
O209     O      0.647838190000     0.159820510000     0.594342170000    -0.969062   
O209     O      0.647838190000     0.659820510000     0.094342170000    -0.969062   
O209     O      0.647838190000     0.659820510000     0.594342170000    -0.969062   
O210     O      0.443069100000     0.379770250000     0.366708250000    -0.156337   
O210     O      0.443069100000     0.379770250000     0.866708250000    -0.156337   
O210     O      0.443069100000     0.879770250000     0.366708250000    -0.156337   
O210     O      0.443069100000     0.879770250000     0.866708250000    -0.156337   
O210     O      0.943069100000     0.379770250000     0.366708250000    -0.156337   
O210     O      0.943069100000     0.379770250000     0.866708250000    -0.156337   
O210     O      0.943069100000     0.879770250000     0.366708250000    -0.156337   
O210     O      0.943069100000     0.879770250000     0.866708250000    -0.156337   
O211     O      0.067710385000     0.309369950000     0.045598210000    -1.19428    
O211     O      0.067710385000     0.309369950000     0.545598210000    -1.19428    
O211     O      0.067710385000     0.809369950000     0.045598210000    -1.19428    
O211     O      0.067710385000     0.809369950000     0.545598210000    -1.19428    
O211     O      0.567710385000     0.309369950000     0.045598210000    -1.19428    
O211     O      0.567710385000     0.309369950000     0.545598210000    -1.19428    
O211     O      0.567710385000     0.809369950000     0.045598210000    -1.19428    
O211     O      0.567710385000     0.809369950000     0.545598210000    -1.19428    
O212     O      0.429733100000     0.431272475000     0.327654100000     1.17377    
O212     O      0.429733100000     0.431272475000     0.827654100000     1.17377    
O212     O      0.429733100000     0.931272475000     0.327654100000     1.17377    
O212     O      0.429733100000     0.931272475000     0.827654100000     1.17377    
O212     O      0.929733100000     0.431272475000     0.327654100000     1.17377    
O212     O      0.929733100000     0.431272475000     0.827654100000     1.17377    
O212     O      0.929733100000     0.931272475000     0.327654100000     1.17377    
O212     O      0.929733100000     0.931272475000     0.827654100000     1.17377    
O213     O      0.081046395000     0.257867725000     0.084652370000     1.10595    
O213     O      0.081046395000     0.257867725000     0.584652370000     1.10595    
O213     O      0.081046395000     0.757867725000     0.084652370000     1.10595    
O213     O      0.081046395000     0.757867725000     0.584652370000     1.10595    
O213     O      0.581046395000     0.257867725000     0.084652370000     1.10595    
O213     O      0.581046395000     0.257867725000     0.584652370000     1.10595    
O213     O      0.581046395000     0.757867725000     0.084652370000     1.10595    
O213     O      0.581046395000     0.757867725000     0.584652370000     1.10595    
O214     O      0.499086300000     0.005980880000     0.289789170000     1.16426    
O214     O      0.499086300000     0.005980880000     0.789789170000     1.16426    
O214     O      0.499086300000     0.505980880000     0.289789170000     1.16426    
O214     O      0.499086300000     0.505980880000     0.789789170000     1.16426    
O214     O      0.999086300000     0.005980880000     0.289789170000     1.16426    
O214     O      0.999086300000     0.005980880000     0.789789170000     1.16426    
O214     O      0.999086300000     0.505980880000     0.289789170000     1.16426    
O214     O      0.999086300000     0.505980880000     0.789789170000     1.16426    
O215     O      0.451155350000     0.031771760000     0.313281800000     1.08168    
O215     O      0.451155350000     0.031771760000     0.813281800000     1.08168    
O215     O      0.451155350000     0.531771760000     0.313281800000     1.08168    
O215     O      0.451155350000     0.531771760000     0.813281800000     1.08168    
O215     O      0.951155350000     0.031771760000     0.313281800000     1.08168    
O215     O      0.951155350000     0.031771760000     0.813281800000     1.08168    
O215     O      0.951155350000     0.531771760000     0.313281800000     1.08168    
O215     O      0.951155350000     0.531771760000     0.813281800000     1.08168    
O216     O      0.060157040000     0.157354850000     0.098715760000     1.09325    
O216     O      0.060157040000     0.157354850000     0.598715760000     1.09325    
O216     O      0.060157040000     0.657354850000     0.098715760000     1.09325    
O216     O      0.060157040000     0.657354850000     0.598715760000     1.09325    
O216     O      0.560157040000     0.157354850000     0.098715760000     1.09325    
O216     O      0.560157040000     0.157354850000     0.598715760000     1.09325    
O216     O      0.560157040000     0.657354850000     0.098715760000     1.09325    
O216     O      0.560157040000     0.657354850000     0.598715760000     1.09325    
O217     O      0.012192470000     0.183162600000     0.122223885000     1.1546     
O217     O      0.012192470000     0.183162600000     0.622223885000     1.1546     
O217     O      0.012192470000     0.683162600000     0.122223885000     1.1546     
O217     O      0.012192470000     0.683162600000     0.622223885000     1.1546     
O217     O      0.512192470000     0.183162600000     0.122223885000     1.1546     
O217     O      0.512192470000     0.183162600000     0.622223885000     1.1546     
O217     O      0.512192470000     0.683162600000     0.122223885000     1.1546     
O217     O      0.512192470000     0.683162600000     0.622223885000     1.1546     
O218     O      0.130271970000     0.219617590000     0.081095025000     1.04867    
O218     O      0.130271970000     0.219617590000     0.581095025000     1.04867    
O218     O      0.130271970000     0.719617590000     0.081095025000     1.04867    
O218     O      0.130271970000     0.719617590000     0.581095025000     1.04867    
O218     O      0.630271970000     0.219617590000     0.081095025000     1.04867    
O218     O      0.630271970000     0.219617590000     0.581095025000     1.04867    
O218     O      0.630271970000     0.719617590000     0.081095025000     1.04867    
O218     O      0.630271970000     0.719617590000     0.581095025000     1.04867    
O219     O      0.380243600000     0.470053450000     0.332286300000     1.08056    
O219     O      0.380243600000     0.470053450000     0.832286300000     1.08056    
O219     O      0.380243600000     0.970053450000     0.332286300000     1.08056    
O219     O      0.380243600000     0.970053450000     0.832286300000     1.08056    
O219     O      0.880243600000     0.470053450000     0.332286300000     1.08056    
O219     O      0.880243600000     0.470053450000     0.832286300000     1.08056    
O219     O      0.880243600000     0.970053450000     0.332286300000     1.08056    
O219     O      0.880243600000     0.970053450000     0.832286300000     1.08056    
O220     O      0.485749800000     0.432117580000     0.315390900000     0.019376   
O220     O      0.485749800000     0.432117580000     0.815390900000     0.019376   
O220     O      0.485749800000     0.932117580000     0.315390900000     0.019376   
O220     O      0.485749800000     0.932117580000     0.815390900000     0.019376   
O220     O      0.985749800000     0.432117580000     0.315390900000     0.019376   
O220     O      0.985749800000     0.432117580000     0.815390900000     0.019376   
O220     O      0.985749800000     0.932117580000     0.315390900000     0.019376   
O220     O      0.985749800000     0.932117580000     0.815390900000     0.019376   
O221     O      0.022390935000     0.286216450000     0.096315500000     0.024342   
O221     O      0.022390935000     0.286216450000     0.596315500000     0.024342   
O221     O      0.022390935000     0.786216450000     0.096315500000     0.024342   
O221     O      0.022390935000     0.786216450000     0.596315500000     0.024342   
O221     O      0.522390935000     0.286216450000     0.096315500000     0.024342   
O221     O      0.522390935000     0.286216450000     0.596315500000     0.024342   
O221     O      0.522390935000     0.786216450000     0.096315500000     0.024342   
O221     O      0.522390935000     0.786216450000     0.596315500000     0.024342   


