data_I
_chemical_name_common  'results/normal_generation/cif/sample_6'
_cell_length_a 23.36688
_cell_length_b 27.07329
_cell_length_c 31.91572
_cell_angle_alpha 90.25124
_cell_angle_beta  90.20758
_cell_angle_gamma 86.53960
_space_group_name_H-M_alt      'P 1'


loop_
_space_group_symop_operation_xyz
  'x, y, z' 

loop_
_atom_site_label
_atom_site_fract_x
_atom_site_fract_y
_atom_site_fract_z
_atom_site_type_symbol
H0    0.7340991 0.8040849 0.029235959     H
H1    0.9257903 0.76061314 0.9626119     H
H2    0.8744689 0.8267204 0.033374667     H
H3    0.90873796 0.82240397 0.90397185     H
C4    0.86387426 0.8249602 0.913155     C
C5    0.94899833 0.77394474 0.043141246     C
C6    0.84935975 0.8099457 0.95169604     C
C7    0.90296155 0.79898214 0.01827526     C
C8    0.895412 0.786777 0.97790647     C
C9    0.82373714 0.85140955 0.88464993     C
S10   0.77799726 0.8169506 0.97116077     S
O11   0.7571251 0.8704895 0.9687467     O
O12   0.7397667 0.78654164 0.9448389     O
O13   0.7747459 0.7977063 0.02108109     O
O14   0.98654044 0.74502146 0.024573684     O
O15   0.7763706 0.83355385 0.8747089     O
O16   0.9492943 0.77884513 0.08331132     O
O17   0.83553183 0.8936697 0.87111795     O
Zn18  0.83648574 0.42638296 0.3386082    Zn
Zn19  0.7118653 0.4393459 0.3581576    Zn
Zn20  0.06286967 0.681898 0.059096906    Zn
Zn21  0.98482543 0.6904247 0.13132942    Zn
Zn22  0.3175081 0.92982286 0.31392205    Zn
Zn23  0.23240273 0.9334212 0.38277608    Zn
H24   0.5310715 0.92770183 0.50742406     H
H25   0.55931056 0.024605477 0.38250113     H
H26   0.3971096 0.10855164 0.47836882     H
H27   0.34320098 0.035402283 0.46718144     H
C28   0.33999696 0.9936906 0.40920466     C
C29   0.46157312 0.11689557 0.5264532     C
C30   0.45245153 0.04401436 0.48062915     C
C31   0.42681983 0.02386256 0.44277182     C
C32   0.43305543 0.08917232 0.494213     C
C33   0.3694572 0.020768518 0.441385     C
S34   0.5048949 0.0056379526 0.50746965     S
S35   0.47335976 0.008120225 0.40019342     S
O36   0.2860887 0.0018130924 0.4037083     O
O37   0.43440008 0.1527929 0.54523724     O
O38   0.36688945 0.95796657 0.39043665     O
O39   0.5151898 0.10893519 0.53195506     O
O40   0.5637712 0.021072991 0.49669355     O
O41   0.4960207 0.009973534 0.5540073     O
O42   0.49923152 0.94638836 0.492805     O
O43   0.48658803 0.9530951 0.39933193     O
O44   0.44552082 0.024173187 0.35953662     O
O45   0.53482217 0.036702074 0.40611508     O
H46   0.10994906 0.1871216 0.39194527     H
H47   0.019606605 0.9995747 0.3201839     H
H48   0.9682288 0.17408487 0.24103937     H
H49   0.88283175 0.17349337 0.19510148     H
H50   0.7855827 0.17444122 0.22598818     H
H51   0.7736366 0.17584157 0.30314213     H
H52   0.8586152 0.17607537 0.34955058     H
H53   0.9652208 0.27385697 0.43073818     H
H54   0.98602784 0.35089466 0.46793526     H
H55   0.07604767 0.39174497 0.45382988     H
H56   0.14545955 0.35544235 0.4020136     H
H57   0.12516263 0.27872768 0.3640615     H
C58   0.18192568 0.024359468 0.36376178     C
C59   0.97054297 0.17635785 0.32615888     C
C60   0.980875 0.22112624 0.34724298     C
C61   0.031081686 0.22473356 0.3715184     C
C62   0.070971966 0.18412475 0.3737784     C
C63   0.061035693 0.13950628 0.353606     C
C64   0.010006826 0.13457483 0.33035257     C
C65   0.94071376 0.26384354 0.3427279     C
C66   0.10447209 0.09932761 0.3572363     C
C67   0.1402664 0.06542302 0.36029354     C
C68   0.9066553 0.298917 0.33927098     C
C69   0.8655172 0.34025148 0.3355763     C
C70   0.9194969 0.17465957 0.29856494     C
C71   0.92593974 0.17416361 0.2548372     C
C72   0.8777055 0.17394824 0.22878768     C
C73   0.8228604 0.17450792 0.24620387     C
C74   0.81614333 0.17524336 0.2897135     C
C75   0.8642609 0.17534049 0.3158821     C
C76   0.04341818 0.2708505 0.39430037     C
C77   0.0045079566 0.29153183 0.4239766     C
C78   0.01623897 0.33506867 0.445237     C
C79   0.06700052 0.3580763 0.43731245     C
C80   0.10614862 0.3375835 0.4081175     C
C81   0.094562426 0.29407346 0.38674656     C
S82   0.9966098 0.076447025 0.30664736     S
O83   0.22994432 0.030057212 0.3824024     O
O84   0.82767326 0.34790653 0.36493027     O
O85   0.8670537 0.36863643 0.30296925     O
O86   0.17052649 0.982123 0.34837487     O
O87   0.93378526 0.07150341 0.29865032     O
O88   0.02827358 0.072505854 0.26574868     O
O89   0.020249406 0.029647686 0.33793032     O
Zn90  0.45731318 0.19631943 0.6202137    Zn
Zn91  0.570485 0.16014087 0.58634424    Zn
H92   0.4566731 0.7744749 0.72463703     H
H93   0.40217403 0.69914824 0.72357756     H
H94   0.4114629 0.6399337 0.7804717     H
H95   0.5001506 0.5863392 0.91671705     H
H96   0.55973816 0.6000891 0.9757539     H
H97   0.68597054 0.70908433 0.0230366     H
H98   0.5200487 0.7910562 0.7826428     H
C99   0.55574286 0.6285497 0.95197344     C
C100  0.58392304 0.672211 0.95643467     C
C101  0.5775549 0.7088914 0.9248271     C
C102  0.43580607 0.6726101 0.782632     C
C103  0.47220883 0.6811045 0.8172302     C
C104  0.5031167 0.72425747 0.8181067     C
C105  0.44685417 0.6022448 0.8491552     C
C106  0.57126796 0.77792495 0.8515403     C
C107  0.49704307 0.75759894 0.7839274     C
C108  0.4608602 0.7485275 0.7503389     C
C109  0.4302104  0.70617 0.74973226     C
C110  0.6191061 0.67837226 0.99506176     C
C111  0.47890106 0.6469539 0.85031414     C
C112  0.60028815 0.75649554 0.93384814     C
C113  0.51533276 0.6555827 0.8848192     C
C114  0.5448229 0.69991654 0.88735384     C
C115  0.53942657 0.7333213 0.85267156     C
C116  0.52160317 0.62063974 0.91741294     C
N117  0.6184853 0.7943871 0.9414233     N
O118  0.47301188 0.56085443 0.84005564     O
O119  0.39342493 0.6052353 0.85781455     O
O120  0.545049 0.8193396 0.86030406     O
O121  0.624643 0.7749603 0.8425471     O
O122  0.6076126 0.656475 0.027130961     O
O123  0.666075 0.70799994 0.9947893     O
C124  0.22162072 0.2649774 0.8551758     C
C125  0.8020319 0.11231802 0.84701866     C
C126  0.9788833 0.21271156 0.82215697     C
C127  0.9867207 0.19490163 0.88877124     C
C128  0.036648154 0.18331593 0.81332415     C
C129  0.04454617 0.16535182 0.8805006     C
C130  0.16620825 0.24485898 0.85410416     C
C131  0.8574124 0.1325081 0.8481057     C
C132  0.0054285685 0.23678102 0.8606454     C
C133  0.062752195 0.20791706 0.85222554     C
C134  0.9603538 0.17043969 0.85021067     C
C135  0.017611759 0.14064321 0.84160876     C
C136  0.1195723 0.2281052 0.85324085     C
C137  0.90388036 0.14952642 0.849034     C
C138  0.94050825 0.23877756 0.7891549     C
C139  0.9728658 0.27672356 0.76456153     C
C140  0.9340744 0.30277386 0.7319249     C
C141  0.9572516 0.20077199 0.9313197     C
C142  0.9963498 0.22342499 0.96391445     C
C143  0.96639967 0.2294604 0.0061631203     C
H144  0.057595 0.17854114 0.78228325     H
H145  0.071976356 0.14587015 0.9044563     H
H146  0.022130765 0.100635916 0.83371836     H
H147  0.91824335 0.27548075 0.70922637     H
H148  0.89691764 0.3227815 0.74737096     H
H149  0.9585672 0.329954 0.71455455     H
H150  0.98895216 0.30494606 0.78628314     H
H151  0.010205801 0.25787434 0.7483842     H
H152  0.9250113 0.2104329 0.76726836     H
H153  0.9028358 0.25742185 0.8050557     H
H154  0.9270862 0.25441197 0.0031907558     H
H155  0.954629 0.19292988 0.018031955     H
H156  0.9956616 0.24584098 0.029164195     H
H157  0.036069673 0.19915622 0.96794564     H
H158  0.008630962 0.2603041 0.95323014     H
H159  0.9172666 0.2247006 0.9274951     H
H160  0.94557756 0.16371366 0.94204944     H
N161  0.99750423 0.2892303 0.87109053     N
O162  0.22531249 0.3117164 0.86123013     O
O163  0.26684144 0.23604423 0.85007375     O
O164  0.78002614 0.09714779 0.881217     O
O165  0.77513206 0.10972389 0.8118733     O
O166  0.94619745 0.30907676 0.8774749     O
O167  0.041333042 0.316434 0.8740916     O
Zn168 0.22840877 0.48597282 0.8558921    Zn
Zn169 0.29552117 0.38674462 0.835917    Zn
H170  0.8643643 0.63127506 0.19911055     H
H171  0.9482176 0.4866061 0.2555495     H
C172  0.8703144 0.4774425 0.29142565     C
C173  0.9421275 0.6402257 0.16303584     C
C174  0.90702564 0.5048754 0.26324078     C
C175  0.90544903 0.61289316 0.191304     C
C176  0.8890728 0.5482392 0.24440047     C
C177  0.923308 0.5694367 0.21003525     C
N178  0.9749757 0.5425971 0.19634189     N
N179  0.8372332 0.5749509 0.25792092     N
O180  0.8148393 0.48875976 0.2873517     O
O181  0.9975979 0.6289112 0.16710785     O
O182  0.8956885 0.44174352 0.3150606     O
O183  0.91674864 0.6759275 0.13939893     O
O184  0.019396424 0.5381728 0.22104152     O
O185  0.97882915 0.52559775 0.15819536     O
O186  0.7929819 0.57930416 0.23305714     O
O187  0.8331086 0.59203136 0.29603603     O
H188  0.22907685 0.55644083 0.97540146     H
H189  0.04554165 0.5645376 0.9654582     H
C190  0.04129156 0.62971056 0.0058350563     C
C191  0.23527418 0.5016429 0.925168     C
C192  0.07016249 0.59438926 0.9771385     C
C193  0.20666884 0.54222256 0.9484713     C
C194  0.12528613 0.5979168 0.9656696     C
C195  0.15321441 0.560097 0.9385505     C
N196  0.12514682 0.5460312 0.90047604     N
N197  0.1583629 0.6380165 0.9793889     N
O198  0.07191683 0.6555583 0.029682994     O
O199  0.20439935 0.47319937 0.90395105     O
O200  0.98615664 0.6343623 0.0071088076     O
O201  0.29015958 0.49439535 0.9265252     O
O202  0.07938144 0.521031 0.9017321     O
O203  0.14705311 0.55644566 0.86437815     O
O204  0.17025949 0.67215675 0.9528144     O
O205  0.18673103 0.63431185 0.014510393     O
H206  0.25938883 0.6862615 0.20631544     H
H207  0.1845516 0.8612939 0.23595779     H
H208  0.20501035 0.76231563 0.2822497     H
H209  0.085044995 0.84637296 0.2090756     H
C210  0.10337652 0.81223667 0.1952265     C
C211  0.23785481 0.8319695 0.30586347     C
C212  0.15414357 0.7927044 0.2095176     C
C213  0.20737584 0.80150884 0.27596372     C
C214  0.18421687 0.8216054 0.24096562     C
C215  0.066856846 0.78650886 0.16608885     C
S216  0.18509158 0.73466456 0.1917713     S
O217  0.14325292 0.6953974 0.19843653     O
O218  0.19826908 0.73790795 0.14584328     O
O219  0.2463771 0.7191681 0.21760575     O
O220  0.23566556 0.879137 0.30105028     O
O221  0.08634776 0.76997954 0.13123097     O
O222  0.26904833 0.81104016 0.33488056     O
O223  0.015760703 0.7789187 0.17666109     O
H224  0.54959196 0.7647384 0.36790326     H
H225  0.33791354 0.70768905 0.27382746     H
H226  0.44327042 0.5749606 0.3804931     H
H227  0.42132705 0.48819578 0.36652124     H
H228  0.4634765 0.4435635 0.30491844     H
H229  0.5277191 0.4858866 0.25699136     H
H230  0.54978096 0.5727777 0.2703309     H
H231  0.68434304 0.6708097 0.3223375     H
H232  0.7802205 0.68847257 0.34915456     H
H233  0.79062754 0.7281453 0.4186748     H
H234  0.70461196 0.749981 0.46169978     H
H235  0.6083439 0.7320753 0.435699     H
C236  0.36664543 0.83757854 0.33650124     C
C237  0.5121142 0.6317589 0.33511645     C
C238  0.5677171 0.64050454 0.3501871     C
C239  0.5814292 0.68885106 0.36153677     C
C240  0.5393037 0.7277035 0.35861588     C
C241  0.4844881 0.71977943 0.34329218     C
C242  0.47051993 0.671911 0.33033916     C
C243  0.61002946 0.5994283 0.35528362     C
C244  0.44321916 0.761774 0.34145188     C
C245  0.40853903 0.7966355 0.33950648     C
C246  0.6451566 0.5651462 0.35882908     C
C247  0.6870274 0.52432853 0.36233467     C
C248  0.49766704 0.5801663 0.3261764     C
C249  0.46158502 0.5558818 0.35333547     C
C250  0.44921792 0.50677586 0.3455599     C
C251  0.47300935 0.4815962 0.31083196     C
C252  0.5091851 0.50549126 0.28378668     C
C253  0.5215587 0.55462927 0.2913836     C
C254  0.6392511 0.6996831 0.3772477     C
C255  0.6882674 0.6877674 0.3529408     C
C256  0.74264467 0.6978877 0.36794975     C
C257  0.74851125 0.72028553 0.4071217     C
C258  0.7000051 0.7326249 0.43136227     C
C259  0.6455397 0.72252107 0.41649497     C
S260  0.40121835 0.662977 0.30872855     S
O261  0.3781944 0.8802136 0.3510229     O
O262  0.723744 0.5163907 0.33227116     O
O263  0.6868699 0.49636453 0.3952703     O
O264  0.31802976 0.8311865 0.3190047     O
O265  0.4013306 0.6172833 0.281809     O
O266  0.35984662 0.6582367 0.3442281     O
O267  0.37918755 0.71172905 0.27904686     O
H268  0.33678594 0.27985168 0.7775942     H
H269  0.40483636 0.30485967 0.6504614     H
H270  0.28804716 0.433911 0.6798733     H
H271  0.44338056 0.33674395 0.825356     H
C272  0.27560583 0.34329668 0.77837926     C
C273  0.48468402 0.2705915 0.6723589     C
C274  0.42940944 0.29859713 0.6787809     C
C275  0.3168844 0.30841058 0.75758666     C
C276  0.40537485 0.30686635 0.716787     C
C277  0.34232485 0.3199637 0.7215632     C
S278  0.30110934 0.35406336 0.6832224     S
S279  0.44972008 0.30639213 0.762578     S
O280  0.27847537 0.38947526 0.77146786     O
O281  0.49558088 0.23312864 0.697204     O
O282  0.24587353 0.32745162 0.8078512     O
O283  0.52818274 0.2951523 0.66082066     O
O284  0.3082033 0.33047605 0.64079714     O
O285  0.23832147 0.35566685 0.6938411     O
O286  0.32328355 0.41199064 0.68294555     O
O287  0.45769346 0.2543068 0.77850044     O
O288  0.5072862 0.32507688 0.75227827     O
O289  0.41901448 0.3427044 0.8001898     O
H290  0.5312439 0.35307702 0.44425425     H
H291  0.43479514 0.3715701 0.4150432     H
H292  0.40957043 0.3395867 0.34484375     H
H293  0.48048013 0.2860313 0.3052052     H
H294  0.57727593 0.26737913 0.33380532     H
H295  0.68862605 0.32037348 0.44482583     H
H296  0.58619463 0.25863066 0.47005448     H
H297  0.6786093 0.31414142 0.51637405     H
C298  0.64729697 0.35002464 0.37423643     C
C299  0.636936 0.2527759 0.54396564     C
C300  0.6429816 0.29040295 0.51264393     C
C301  0.6227952 0.31265217 0.40064615     C
C302  0.64654917 0.30646557 0.4389205     C
C303  0.561042 0.30700183 0.39195293     C
C304  0.5198596 0.33612671 0.41484606     C
C305  0.46555302 0.34795797 0.39781317     C
C306  0.4514451 0.3301542 0.35817066     C
C307  0.49120688 0.29964283 0.33595696     C
C308  0.5456829 0.2880882 0.3527126     C
C309  0.61933374 0.28444174 0.4749197     C
O310  0.68090975 0.22374791 0.55023533     O
O311  0.5873241 0.24585745 0.5590791     O
O312  0.69899887 0.35725105 0.37829486     O
O313  0.6214652 0.38970074 0.38148075     O
Zn314 0.7471904 0.975125 0.82238865    Zn
Zn315 0.7779711 0.89852756 0.885548    Zn
H316  0.7260569 0.03180808 0.7163608     H
H317  0.5425643 0.09016352 0.7455956     H
C318  0.5448038 0.12930177 0.68585694     C
C319  0.5671076 0.09421936 0.7170933     C
C320  0.7015094 0.027751569 0.7448632     C
C321  0.61974555 0.072766274 0.712988     C
C322  0.64887416 0.049198214 0.74896705     C
C323  0.72381747 0.9926661 0.7760962     C
O324  0.5819372 0.15472795 0.6658155     O
O325  0.6866841 0.96724004 0.79613775     O
O326  0.48919675 0.13681719 0.6819939     O
O327  0.77942467 0.98515075 0.77995926     O
F328  0.6221238 0.04967432 0.78686535     F
F329  0.6464918 0.0722858 0.67508656     F
loop_
_geom_bond_atom_site_label_1
_geom_bond_atom_site_label_2
_geom_bond_distance
_geom_bond_site_symmetry_2
_ccdc_geom_bond_type
H0    O13    0.99058       .     D
H1    C8     1.08751       .     S
H2    C7     1.08547       .     S
H3    C4     1.08764       .     S
C4    H3     1.08764       .     D
C4    C6     1.34810       .     S
C4    C9     1.46236       .     S
C5    C7     1.46868       .     S
C5    O14    1.28478       .     S
C5    O16    1.28836       .     S
C6    C4     1.34810       .     S
C6    C8     1.47234       .     S
C6    S10    1.78068       .     D
C7    H2     1.08547       .     D
C7    C5     1.46868       .     S
C7    C8     1.34236   1_554     S
C8    H1     1.08751       .     S
C8    C6     1.47234       .     D
C8    C7     1.34236   1_556     S
C9    C4     1.46236       .     S
C9    O15    1.27282       .     S
C9    O17    1.27073       .     D
S10   C6     1.78068       .     S
S10   O11    1.50338       .     S
S10   O12    1.50294       .     S
S10   O13    1.68184   1_556     S
O11   S10    1.50338       .     S
O12   S10    1.50294       .     S
O13   H0     0.99058       .     S
O13   S10    1.68184   1_554     D
O14   C5     1.28478       .     D
O14   Zn20   2.63629   1_655     S
O15   C9     1.27282       .     S
O15   Zn314  4.20429       .     S
O16   C5     1.28836       .     S
O16   Zn21   2.92428       .     S
O17   C9     1.27073       .     S
O17   Zn314  3.31668       .     S
Zn18  Zn19   2.97994       .     S
Zn18  O84    2.30908       .     S
Zn18  O85    2.02574       .     D
Zn18  O262   3.48491       .     S
Zn18  O312   4.02548       .     S
Zn19  Zn18   2.97994       .     S
Zn19  O180   3.62501       .     S
Zn19  O263   2.00180       .     S
Zn19  O313   2.68059       .     S
Zn19  O324  12.98890       .     S
Zn20  O14    2.63629   1_455     S
Zn20  Zn21   2.94425   1_455     S
Zn20  O181   4.07593   1_455     S
Zn20  O221   3.37467       .     S
Zn20  O327  13.57534   1_454     S
Zn21  O16    2.92428       .     S
Zn21  Zn20   2.94425   1_655     S
Zn21  O198   3.91738   1_655     S
Zn21  O200   4.23852       .     S
Zn21  O223   2.92007   1_655     S
Zn22  Zn23   2.96643       .     S
Zn22  O220   2.45260       .     D
Zn22  O222   3.54051       .     S
Zn22  O261   2.23354       .     D
Zn22  O264   2.67533       .     S
Zn23  Zn22   2.96643       .     S
Zn23  O36    2.38996   1_565     S
Zn23  O38    3.25914       .     S
Zn23  O83    2.61350   1_565     S
Zn23  O86    2.19215       .     S
H24   O42    0.99060       .     S
H25   O45    0.99047       .     S
H26   C32    1.08744       .     S
H27   C33    1.08751       .     S
C28   C33    1.45442   1_565     S
C28   O36    1.27718   1_565     S
C28   O38    1.27018       .     S
C29   C32    1.45424       .     S
C29   O37    1.27681       .     S
C29   O39    1.27007       .     S
C30   C31    1.46446       .     S
C30   C32    1.34831       .     S
C30   S34    1.77806       .     D
C31   C30    1.46446       .     S
C31   C33    1.34859       .     D
C31   S35    1.77782       .     S
C32   H26    1.08744       .     S
C32   C29    1.45424       .     T
C32   C30    1.34831       .     S
C33   H27    1.08751       .     S
C33   C28    1.45442   1_545     S
C33   C31    1.34859       .     S
S34   C30    1.77806       .     S
S34   O40    1.50323       .     S
S34   O41    1.50353       .     A
S34   O42    1.68174   1_545     A
S35   C31    1.77782       .     S
S35   O43    1.50322   1_545     A
S35   O44    1.50349       .     A
S35   O45    1.68167       .     S
O36   Zn23   2.38996   1_545     S
O36   C28    1.27718   1_545     A
O37   C29    1.27681       .     A
O37   Zn90   2.72829       .     S
O38   Zn23   3.25914       .     S
O38   C28    1.27018       .     A
O39   C29    1.27007       .     A
O39   Zn91   2.60450       .     A
O40   S34    1.50323       .     S
O41   S34    1.50353       .     A
O42   H24    0.99060       .     A
O42   S34    1.68174   1_565     A
O43   S35    1.50322   1_565     S
O44   S35    1.50349       .     A
O45   H25    0.99047       .     S
O45   S35    1.68167       .     A
H46   C62    1.08487       .     S
H47   O89    0.99059   1_565     S
H48   C71    1.08318       .     A
H49   C72    1.08214       .     A
H50   C73    1.08220       .     A
H51   C74    1.08239       .     S
H52   C75    1.08305       .     T
H53   C77    1.08336   1_655     S
H54   C78    1.08222   1_655     A
H55   C79    1.08245       .     S
H56   C80    1.08224       .     S
H57   C81    1.08320       .     S
C58   C67    1.43717       .     D
C58   O83    1.28529       .     S
C58   O86    1.28474   1_545     D
C59   C60    1.41672       .     S
C59   C64    1.42211   1_655     S
C59   C70    1.48294       .     T
C60   C59    1.41672       .     S
C60   C61    1.41164   1_655     S
C60   C65    1.45203       .     S
C61   C60    1.41164   1_455     S
C61   C62    1.39973       .     S
C61   C76    1.48479       .     S
C62   H46    1.08487       .     A
C62   C61    1.39973       .     A
C62   C63    1.39769       .     S
C63   C62    1.39769       .     A
C63   C64    1.41504       .     A
C63   C66    1.44700       .     S
C64   C59    1.42211   1_455     S
C64   C63    1.41504       .     A
C64   S82    1.78725   1_455     A
C65   C60    1.45203       .     S
C65   C68    1.20675       .     S
C66   C63    1.44700       .     A
C66   C67    1.20796       .     A
C67   C58    1.43717       .     A
C67   C66    1.20796       .     S
C68   C65    1.20675       .     A
C68   C69    1.43552       .     A
C69   C68    1.43552       .     A
C69   O84    1.29800       .     S
C69   O85    1.29825       .     A
C70   C59    1.48294       .     S
C70   C71    1.40416       .     A
C70   C75    1.40496       .     S
C71   H48    1.08318       .     S
C71   C70    1.40416       .     A
C71   C72    1.39840       .     A
C72   H49    1.08214       .     A
C72   C71    1.39840       .     S
C72   C73    1.39798       .     T
C73   H50    1.08220       .     S
C73   C72    1.39798       .     A
C73   C74    1.39797       .     S
C74   H51    1.08239       .     S
C74   C73    1.39797       .     S
C74   C75    1.39831       .     D
C75   H52    1.08305       .     S
C75   C70    1.40496       .     S
C75   C74    1.39831       .     S
C76   C61    1.48479       .     T
C76   C77    1.40619       .     S
C76   C81    1.40562       .     S
C77   H53    1.08336   1_455     S
C77   C76    1.40619       .     D
C77   C78    1.39839       .     D
C78   H54    1.08222   1_455     S
C78   C77    1.39839       .     A
C78   C79    1.39701       .     A
C79   H55    1.08245       .     S
C79   C78    1.39701       .     S
C79   C80    1.39757       .     A
C80   H56    1.08224       .     A
C80   C79    1.39757       .     A
C80   C81    1.39865       .     A
C81   H57    1.08320       .     S
C81   C76    1.40562       .     S
C81   C80    1.39865       .     A
S82   C64    1.78725   1_655     A
S82   O87    1.50294       .     A
S82   O88    1.50296   1_655     A
S82   O89    1.68223   1_655     A
O83   Zn23   2.61350   1_545     A
O83   C58    1.28529       .     S
O84   Zn18   2.30908       .     S
O84   C69    1.29800       .     A
O85   Zn18   2.02574       .     A
O85   C69    1.29825       .     A
O86   Zn23   2.19215       .     S
O86   C58    1.28474   1_565     A
O87   S82    1.50294       .     S
O88   S82    1.50296   1_455     S
O89   H47    0.99059   1_545     D
O89   S82    1.68223   1_455     S
Zn90  O37    2.72829       .     T
Zn90  Zn91   2.96982       .     S
Zn90  O281   2.81082       .     S
Zn90  O311   3.92334       .     S
Zn90  O326   2.62874       .     D
Zn91  O39    2.60450       .     D
Zn91  Zn90   2.96982       .     S
Zn91  O182  14.10257       .     A
Zn91  O283   4.41500       .     A
Zn91  O310   3.39511       .     S
H92   C108   1.08264       .     S
H93   C109   1.08250       .     A
H94   C102   1.08206       .     A
H95   C116   1.08169       .     A
H96   C99    1.08369       .     A
H97   O123   1.01397   1_554     S
H98   C107   1.08185       .     S
C99   H96    1.08369       .     A
C99   C100   1.39389       .     A
C99   C116   1.38242       .     A
C100  C99    1.39389       .     A
C100  C101   1.41979       .     A
C100  C110   1.49363       .     A
C101  C100   1.41979       .     S
C101  C112   1.45064       .     S
C101  C114   1.44488       .     A
C102  H94    1.08206       .     A
C102  C103   1.41786       .     A
C102  C109   1.39218       .     S
C103  C102   1.41786       .     A
C103  C104   1.41022       .     S
C103  C111   1.40858       .     S
C104  C103   1.41022       .     D
C104  C107   1.42020       .     S
C104  C115   1.41881       .     S
C105  C111   1.46153       .     D
C105  O118   1.27647       .     S
C105  O119   1.27739       .     S
C106  C115   1.45676       .     S
C106  O120   1.27527       .     S
C106  O121   1.27854       .     S
C107  H98    1.08185       .     S
C107  C104   1.42020       .     D
C107  C108   1.39303       .     S
C108  H92    1.08264       .     S
C108  C107   1.39303       .     T
C108  C109   1.38824       .     D
C109  H93    1.08250       .     S
C109  C102   1.39218       .     S
C109  C108   1.38824       .     S
C110  C100   1.49363       .     S
C110  O122   1.22380   1_556     S
C110  O123   1.39800       .     S
C111  C103   1.40858       .     S
C111  C105   1.46153       .     S
C111  C113   1.41668       .     S
C112  C101   1.45064       .     S
C112  N117   1.15817       .     S
C113  C111   1.41668       .     S
C113  C114   1.42148       .     S
C113  C116   1.41044       .     S
C114  C101   1.44488       .     S
C114  C113   1.42148       .     S
C114  C115   1.43285       .     S
C115  C104   1.41881       .     S
C115  C106   1.45676       .     S
C115  C114   1.43285       .     S
C116  H95    1.08169       .     S
C116  C99    1.38242       .     S
C116  C113   1.41044       .     S
N117  C112   1.15817       .     S
O118  C105   1.27647       .     S
O118  Zn168  6.20180       .     S
O119  C105   1.27739       .     S
O119  Zn168  5.17655       .     S
O120  C106   1.27527       .     S
O120  Zn314  6.63735       .     S
O121  C106   1.27854       .     S
O121  Zn315  5.22326       .     T
O122  C110   1.22380   1_554     S
O123  H97    1.01397   1_556     D
O123  C110   1.39800       .     S
C124  C130   1.43494       .     S
C124  O162   1.28720       .     D
C124  O163   1.28719       .     S
C125  C131   1.43510       .     S
C125  O164   1.28759       .     S
C125  O165   1.28753       .     S
C126  C128   1.55108   1_655     S
C126  C132   1.53446   1_655     S
C126  C134   1.53964       .     D
C126  C138   1.52800       .     S
C127  C129   1.55103   1_655     S
C127  C132   1.53428   1_655     T
C127  C134   1.53928       .     D
C127  C141   1.52813       .     S
C128  C126   1.55108   1_455     S
C128  C133   1.54708       .     S
C128  C135   1.55614       .     S
C128  H144   1.11018       .     S
C129  C127   1.55103   1_455     S
C129  C133   1.54739       .     S
C129  C135   1.55634       .     S
C129  H145   1.11029       .     S
C130  C124   1.43494       .     S
C130  C136   1.20555       .     S
C131  C125   1.43510       .     S
C131  C137   1.20507       .     S
C132  C126   1.53446   1_455     S
C132  C127   1.53428   1_455     S
C132  C133   1.53345       .     S
C132  N161   1.45818   1_455     S
C133  C128   1.54708       .     S
C133  C129   1.54739       .     S
C133  C132   1.53345       .     S
C133  C136   1.46619       .     S
C134  C126   1.53964       .     S
C134  C127   1.53928       .     S
C134  C135   1.54487   1_655     S
C134  C137   1.46731       .     S
C135  C128   1.55614       .     S
C135  C129   1.55634       .     S
C135  C134   1.54487   1_455     S
C135  H146   1.10983       .     S
C136  C130   1.20555       .     S
C136  C133   1.46619       .     S
C137  C131   1.20507       .     T
C137  C134   1.46731       .     S
C138  C126   1.52800       .     D
C138  C139   1.53242       .     S
C138  H152   1.11128       .     S
C138  H153   1.11112       .     S
C139  C138   1.53242       .     D
C139  C140   1.52526       .     S
C139  H150   1.11079       .     S
C139  H151   1.11152   1_655     S
C140  C139   1.52526       .     D
C140  H147   1.11086       .     D
C140  H148   1.11097       .     S
C140  H149   1.11045       .     S
C141  C127   1.52813       .     D
C141  C142   1.53237       .     D
C141  H159   1.11101       .     S
C141  H160   1.11131       .     D
C142  C141   1.53237       .     D
C142  C143   1.52504   1_556     S
C142  H157   1.11173   1_655     S
C142  H158   1.11076   1_655     D
C143  C142   1.52504   1_554     S
C143  H154   1.11096       .     D
C143  H155   1.11092       .     S
C143  H156   1.11050       .     S
H144  C128   1.11018       .     S
H145  C129   1.11029       .     D
H146  C135   1.10983       .     D
H147  C140   1.11086       .     S
H148  C140   1.11097       .     S
H149  C140   1.11045       .     D
H150  C139   1.11079       .     D
H151  C139   1.11152   1_455     S
H152  C138   1.11128       .     D
H153  C138   1.11112       .     D
H154  C143   1.11096       .     S
H155  C143   1.11092       .     S
H156  C143   1.11050       .     D
H157  C142   1.11173   1_455     S
H158  C142   1.11076   1_455     S
H159  C141   1.11101       .     S
H160  C141   1.11131       .     D
N161  C132   1.45818   1_655     S
N161  O166   1.30022       .     D
N161  O167   1.30007   1_655     S
O162  C124   1.28720       .     S
O162  Zn168  4.72644       .     S
O163  C124   1.28719       .     D
O163  Zn169  4.20092       .     D
O164  C125   1.28759       .     D
O164  Zn315  5.38280   1_545     S
O165  C125   1.28753       .     S
O165  Zn314  3.75732   1_545     S
O166  N161   1.30022       .     D
O167  N161   1.30007   1_455     D
Zn168 O118   6.20180       .     D
Zn168 O119   5.17655       .     S
Zn168 O162   4.72644       .     S
Zn168 Zn169  3.09294       .     D
Zn168 O280   3.87893       .     S
Zn169 O163   4.20092       .     D
Zn169 Zn168  3.09294       .     S
Zn169 O199   3.75689       .     S
Zn169 O201   4.09354       .     S
Zn169 O282   2.22030       .     D
H170  C175   1.08368       .     D
H171  C174   1.08376       .     D
C172  C174   1.47817       .     S
C172  O180   1.31997       .     S
C172  O182   1.33740       .     S
C173  C175   1.47787       .     D
C173  O181   1.31984       .     D
C173  O183   1.33753       .     D
C174  H171   1.08376       .     D
C174  C172   1.47817       .     S
C174  C176   1.36409       .     S
C175  H170   1.08368       .     S
C175  C173   1.47787       .     D
C175  C177   1.36411       .     S
C176  C174   1.36409       .     S
C176  C177   1.49651       .     S
C176  N179   1.43938       .     S
C177  C175   1.36411       .     S
C177  C176   1.49651       .     S
C177  N178   1.43935       .     S
N178  C177   1.43935       .     D
N178  O184   1.30117   1_655     D
N178  O185   1.30117       .     S
N179  C176   1.43938       .     S
N179  O186   1.30114       .     S
N179  O187   1.30133       .     D
O180  Zn19   3.62501       .     S
O180  C172   1.31997       .     S
O181  Zn20   4.07593   1_655     S
O181  C173   1.31984       .     D
O182  Zn91  14.10257       .     S
O182  C172   1.33740       .     S
O183  C173   1.33753       .     S
O183  Zn315 10.50491   1_554     S
O184  N178   1.30117   1_455     S
O185  N178   1.30117       .     S
O186  N179   1.30114       .     S
O187  N179   1.30133       .     D
H188  C193   1.08593       .     D
H189  C192   1.08399       .     S
C190  C192   1.45853   1_554     S
C190  O198   1.27787       .     S
C190  O200   1.28766   1_455     D
C191  C193   1.45420       .     S
C191  O199   1.27709       .     S
C191  O201   1.28627       .     T
C192  H189   1.08399       .     S
C192  C190   1.45853   1_556     S
C192  C194   1.34937       .     S
C193  H188   1.08593       .     S
C193  C191   1.45420       .     S
C193  C195   1.34911       .     S
C194  C192   1.34937       .     A
C194  C195   1.46255       .     A
C194  N197   1.43609       .     S
C195  C193   1.34911       .     A
C195  C194   1.46255       .     A
C195  N196   1.43948       .     S
N196  C195   1.43948       .     S
N196  O202   1.30048       .     A
N196  O203   1.30130       .     A
N197  C194   1.43609       .     S
N197  O204   1.30020       .     S
N197  O205   1.30135   1_556     A
O198  Zn21   3.91738   1_455     A
O198  C190   1.27787       .     A
O199  Zn169  3.75689       .     S
O199  C191   1.27709       .     A
O200  Zn21   4.23852       .     A
O200  C190   1.28766   1_655     A
O201  Zn169  4.09354       .     S
O201  C191   1.28627       .     A
O202  N196   1.30048       .     S
O203  N196   1.30130       .     A
O204  N197   1.30020       .     S
O205  N197   1.30135   1_554     A
H206  O219   0.99058       .     S
H207  C214   1.08751       .     A
H208  C213   1.08547       .     A
H209  C210   1.08764       .     S
C210  H209   1.08764       .     T
C210  C212   1.34810       .     S
C210  C215   1.46236       .     A
C211  C213   1.46868       .     S
C211  O220   1.28478       .     S
C211  O222   1.28836       .     S
C212  C210   1.34810       .     D
C212  C214   1.47234       .     S
C212  S216   1.78068       .     D
C213  H208   1.08547       .     S
C213  C211   1.46868       .     S
C213  C214   1.34237       .     T
C214  H207   1.08751       .     S
C214  C212   1.47234       .     S
C214  C213   1.34237       .     S
C215  C210   1.46236       .     S
C215  O221   1.27282       .     S
C215  O223   1.27073       .     S
S216  C212   1.78068       .     A
S216  O217   1.50338       .     A
S216  O218   1.50294       .     S
S216  O219   1.68184       .     A
O217  S216   1.50338       .     A
O218  S216   1.50294       .     S
O219  H206   0.99058       .     S
O219  S216   1.68184       .     A
O220  Zn22   2.45260       .     A
O220  C211   1.28478       .     S
O221  Zn20   3.37467       .     S
O221  C215   1.27282       .     A
O222  Zn22   3.54051       .     A
O222  C211   1.28836       .     A
O223  Zn21   2.92007   1_455     S
O223  C215   1.27073       .     A
H224  C240   1.08487       .     A
H225  O267   0.99059       .     A
H226  C249   1.08318       .     S
H227  C250   1.08214       .     A
H228  C251   1.08219       .     S
H229  C252   1.08239       .     A
H230  C253   1.08305       .     S
H231  C255   1.08336       .     A
H232  C256   1.08222       .     S
H233  C257   1.08245       .     A
H234  C258   1.08224       .     A
H235  C259   1.08320       .     S
C236  C245   1.43716       .     T
C236  O261   1.28529       .     S
C236  O264   1.28474       .     A
C237  C238   1.41673       .     S
C237  C242   1.42211       .     S
C237  C248   1.48294       .     S
C238  C237   1.41673       .     D
C238  C239   1.41164       .     S
C238  C243   1.45203       .     S
C239  C238   1.41164       .     S
C239  C240   1.39973       .     D
C239  C254   1.48478       .     S
C240  H224   1.08487       .     S
C240  C239   1.39973       .     S
C240  C241   1.39769       .     S
C241  C240   1.39769       .     S
C241  C242   1.41504       .     S
C241  C244   1.44700       .     S
C242  C237   1.42211       .     S
C242  C241   1.41504       .     S
C242  S260   1.78725       .     S
C243  C238   1.45203       .     S
C243  C246   1.20675       .     S
C244  C241   1.44700       .     S
C244  C245   1.20796       .     S
C245  C236   1.43716       .     S
C245  C244   1.20796       .     S
C246  C243   1.20675       .     D
C246  C247   1.43552       .     S
C247  C246   1.43552       .     S
C247  O262   1.29800       .     S
C247  O263   1.29826       .     D
C248  C237   1.48294       .     S
C248  C249   1.40416       .     S
C248  C253   1.40496       .     S
C249  H226   1.08318       .     S
C249  C248   1.40416       .     S
C249  C250   1.39840       .     S
C250  H227   1.08214       .     S
C250  C249   1.39840       .     S
C250  C251   1.39798       .     S
C251  H228   1.08219       .     S
C251  C250   1.39798       .     S
C251  C252   1.39797       .     S
C252  H229   1.08239       .     S
C252  C251   1.39797       .     S
C252  C253   1.39830       .     S
C253  H230   1.08305       .     S
C253  C248   1.40496       .     D
C253  C252   1.39830       .     S
C254  C239   1.48478       .     D
C254  C255   1.40619       .     S
C254  C259   1.40561       .     S
C255  H231   1.08336       .     S
C255  C254   1.40619       .     S
C255  C256   1.39839       .     S
C256  H232   1.08222       .     S
C256  C255   1.39839       .     S
C256  C257   1.39701       .     S
C257  H233   1.08245       .     S
C257  C256   1.39701       .     A
C257  C258   1.39757       .     A
C258  H234   1.08224       .     S
C258  C257   1.39757       .     S
C258  C259   1.39865       .     S
C259  H235   1.08320       .     A
C259  C254   1.40561       .     A
C259  C258   1.39865       .     S
S260  C242   1.78725       .     S
S260  O265   1.50294       .     S
S260  O266   1.50296       .     A
S260  O267   1.68223       .     S
O261  Zn22   2.23354       .     A
O261  C236   1.28529       .     S
O262  Zn18   3.48491       .     D
O262  C247   1.29800       .     S
O263  Zn19   2.00180       .     S
O263  C247   1.29826       .     S
O264  Zn22   2.67533       .     S
O264  C236   1.28474       .     S
O265  S260   1.50294       .     S
O266  S260   1.50296       .     S
O267  H225   0.99059       .     S
O267  S260   1.68223       .     S
H268  C275   1.08655       .     A
H269  C274   1.07759       .     A
H270  O286   0.99029       .     S
H271  O289   0.99099       .     S
C272  C275   1.46695       .     S
C272  O280   1.27625       .     A
C272  O282   1.26322       .     A
C273  C274   1.47222       .     S
C273  O281   1.30258       .     S
C273  O283   1.30282       .     S
C274  H269   1.07759       .     A
C274  C273   1.47222       .     S
C274  C276   1.35065       .     A
C275  H268   1.08655       .     S
C275  C272   1.46695       .     S
C275  C277   1.34299       .     S
C276  C274   1.35065       .     S
C276  C277   1.50254       .     S
C276  S279   1.78811       .     S
C277  C275   1.34299       .     S
C277  C276   1.50254       .     D
C277  S278   1.78079       .     S
S278  C277   1.78079       .     D
S278  O284   1.49998       .     S
S278  O285   1.50502       .     D
S278  O286   1.68116       .     S
S279  C276   1.78811       .     S
S279  O287   1.50176       .     S
S279  O288   1.50338       .     S
S279  O289   1.68315       .     S
O280  Zn168  3.87893       .     S
O280  C272   1.27625       .     S
O281  Zn90   2.81082       .     S
O281  C273   1.30258       .     D
O282  Zn169  2.22030       .     S
O282  C272   1.26322       .     D
O283  Zn91   4.41500       .     S
O283  C273   1.30282       .     D
O284  S278   1.49998       .     S
O285  S278   1.50502       .     S
O286  H270   0.99029       .     S
O286  S278   1.68116       .     S
O287  S279   1.50176       .     S
O288  S279   1.50338       .     S
O289  H271   0.99099       .     S
O289  S279   1.68315       .     S
H290  C304   1.08233       .     S
H291  C305   1.08255       .     S
H292  C306   1.08228       .     S
H293  C307   1.08078       .     S
H294  C308   1.08340       .     S
H295  C302   1.08937       .     S
H296  C309   1.08423       .     S
H297  C300   1.08788       .     S
C298  C301   1.46386       .     S
C298  O312   1.24168       .     S
C298  O313   1.22155       .     S
C299  C300   1.44372       .     S
C299  O310   1.27117       .     S
C299  O311   1.28169       .     S
C300  H297   1.08788       .     S
C300  C299   1.44372       .     S
C300  C309   1.33613       .     S
C301  C298   1.46386       .     S
C301  C302   1.34684       .     S
C301  C303   1.48524       .     S
C302  H295   1.08937       .     S
C302  C301   1.34684       .     S
C302  C309   1.46188       .     S
C303  C301   1.48524       .     S
C303  C304   1.41070       .     S
C303  C308   1.40455       .     S
C304  H290   1.08233       .     S
C304  C303   1.41070       .     S
C304  C305   1.39853       .     S
C305  H291   1.08255       .     S
C305  C304   1.39853       .     S
C305  C306   1.39735       .     S
C306  H292   1.08228       .     S
C306  C305   1.39735       .     S
C306  C307   1.39829       .     S
C307  H293   1.08078       .     S
C307  C306   1.39829       .     S
C307  C308   1.39738       .     S
C308  H294   1.08340       .     S
C308  C303   1.40455       .     S
C308  C307   1.39738       .     S
C309  H296   1.08423       .     S
C309  C300   1.33613       .     S
C309  C302   1.46188       .     S
O310  Zn91   3.39511       .     S
O310  C299   1.27117       .     S
O311  Zn90   3.92334       .     S
O311  C299   1.28169       .     S
O312  Zn18   4.02548       .     S
O312  C298   1.24168       .     S
O313  Zn19   2.68059       .     S
O313  C298   1.22155       .     S
Zn314 O15    4.20429       .     S
Zn314 O17    3.31668       .     S
Zn314 O120   6.63735       .     S
Zn314 O165   3.75732   1_565     S
Zn314 Zn315  2.95418       .     S
Zn315 O121   5.22326       .     S
Zn315 O164   5.38280   1_565     S
Zn315 O183  10.50491   1_556     S
Zn315 Zn314  2.95418       .     S
Zn315 O325   3.95943       .     S
H316  C320   1.08667       .     S
H317  C319   1.08661       .     S
C318  C319   1.45341       .     S
C318  O324   1.30991       .     S
C318  O326   1.30847       .     S
C319  H317   1.08661       .     S
C319  C318   1.45341       .     S
C319  C321   1.33478       .     S
C320  H316   1.08667       .     S
C320  C322   1.33465       .     S
C320  C323   1.45342   1_545     S
C321  C319   1.33478       .     S
C321  C322   1.46196       .     S
C321  F329   1.36322       .     S
C322  C320   1.33465       .     S
C322  C321   1.46196       .     S
C322  F328   1.36318       .     S
C323  C320   1.45342   1_565     S
C323  O325   1.30991       .     S
C323  O327   1.30847       .     S
O324  Zn19  12.98890       .     S
O324  C318   1.30991       .     S
O325  Zn315  3.95943       .     S
O325  C323   1.30991       .     S
O326  Zn90   2.62874       .     S
O326  C318   1.30847       .     S
O327  Zn20  13.57534   1_656     S
O327  C323   1.30847       .     S
F328  C322   1.36318       .     S
F329  C321   1.36322       .     S
