# generated using pymatgen
data_ZnH5C23N3Cl3O11
_symmetry_space_group_name_H-M   'P 1'
_cell_length_a   9.18513000
_cell_length_b   10.07485000
_cell_length_c   22.01202000
_cell_angle_alpha   91.14606000
_cell_angle_beta   91.22553000
_cell_angle_gamma   89.37640000
_symmetry_Int_Tables_number   1
_chemical_formula_structural   ZnH5C23N3Cl3O11
_chemical_formula_sum   'Zn2 H10 C46 N6 Cl6 O22'
_cell_volume   2035.98133354
_cell_formula_units_Z   2
loop_
 _symmetry_equiv_pos_site_id
 _symmetry_equiv_pos_as_xyz
  1  'x, y, z'
loop_
 _atom_site_type_symbol
 _atom_site_label
 _atom_site_symmetry_multiplicity
 _atom_site_fract_x
 _atom_site_fract_y
 _atom_site_fract_z
 _atom_site_occupancy
  Zn  Zn0  1  0.34959780  0.71564420  0.79501235  1
  Zn  Zn1  1  0.34485504  0.42493090  0.74892460  1
  H  H2  1  0.51799740  0.28818947  0.79979590  1
  H  H3  1  0.16587266  0.85192240  0.74349470  1
  H  H4  1  0.65839463  0.16027491  0.85691000  1
  H  H5  1  0.02548215  0.97982590  0.68638587  1
  H  H6  1  0.63189810  0.53451480  0.67445314  1
  H  H7  1  0.09093983  0.67204416  0.87013260  1
  H  H8  1  0.72783905  0.49837280  0.51968270  1
  H  H9  1  0.02449811  0.74544660  0.02724283  1
  H  H10  1  0.48331790  0.87460434  0.32500207  1
  H  H11  1  0.20935962  0.24415381  0.21899527  1
  C  C12  1  0.63372810  0.55266890  0.77157060  1
  C  C13  1  0.06010604  0.59103894  0.77277830  1
  C  C14  1  0.78337160  0.56598380  0.77195840  1
  C  C15  1  0.91048280  0.57770610  0.77236485  1
  C  C16  1  0.52238890  0.01489444  0.80277056  1
  C  C17  1  0.16149789  0.12521727  0.74052304  1
  C  C18  1  0.50442016  0.87500690  0.79919060  1
  C  C19  1  0.17946304  0.26510176  0.74409030  1
  C  C20  1  0.26484156  0.90010420  0.75874794  1
  C  C21  1  0.41903517  0.24000853  0.78454780  1
  C  C22  1  0.27678840  0.04100232  0.76024795  1
  C  C23  1  0.40708830  0.09911038  0.78304780  1
  C  C24  1  0.66038400  0.07171063  0.82813070  1
  C  C25  1  0.02350282  0.06840102  0.71516275  1
  C  C26  1  0.20486026  0.58797670  0.95244470  1
  C  C27  1  0.48797560  0.53553870  0.52811940  1
  C  C28  1  0.20317514  0.59411630  0.01661417  1
  C  C29  1  0.36568330  0.58117660  0.49410325  1
  C  C30  1  0.32203624  0.53958064  0.04986900  1
  C  C31  1  0.35730353  0.61517420  0.68579370  1
  C  C32  1  0.33305627  0.52470810  0.85784876  1
  C  C33  1  0.24539708  0.63993530  0.52262260  1
  C  C34  1  0.28301153  0.44007987  0.14617112  1
  C  C35  1  0.40916568  0.67885214  0.39782200  1
  C  C36  1  0.37616480  0.66048515  0.14272682  1
  C  C37  1  0.31150850  0.46012690  0.40131122  1
  C  C38  1  0.38503247  0.66969990  0.20660916  1
  C  C39  1  0.30453673  0.45019248  0.33741400  1
  C  C40  1  0.34153506  0.55815697  0.23998980  1
  C  C41  1  0.34921077  0.56130420  0.30402250  1
  C  C42  1  0.29023950  0.44309950  0.20945969  1
  C  C43  1  0.44178674  0.48230428  0.02046421  1
  C  C44  1  0.40150500  0.67599255  0.33454016  1
  C  C45  1  0.43579220  0.78454670  0.23846988  1
  C  C46  1  0.25457722  0.33506185  0.30556020  1
  C  C47  1  0.44394863  0.78591996  0.30161613  1
  C  C48  1  0.24794036  0.33312228  0.24238504  1
  C  C49  1  0.60458714  0.48818672  0.63091810  1
  C  C50  1  0.07649740  0.63212920  0.91493154  1
  C  C51  1  0.62231070  0.48808777  0.49713874  1
  C  C52  1  0.24523969  0.65481590  0.58557135  1
  C  C53  1  0.08218473  0.66374165  0.04868066  1
  C  C54  1  0.44548154  0.47922355  0.95735130  1
  C  C55  1  0.36355138  0.60622820  0.62009680  1
  C  C56  1  0.32827044  0.53255516  0.92359895  1
  C  C57  1  0.48447734  0.54411680  0.59220390  1
  N  N58  1  0.30696046  0.31969684  0.76585820  1
  N  N59  1  0.37691954  0.82041390  0.77743010  1
  N  N60  1  0.06564873  0.34996247  0.72160983  1
  N  N61  1  0.61823770  0.79014420  0.82166374  1
  N  N62  1  0.32567468  0.54745550  0.11464716  1
  N  N63  1  0.36400908  0.57243675  0.42936580  1
  Cl  Cl64  1  0.49047753  0.93160030  0.20344840  1
  Cl  Cl65  1  0.20008776  0.18800926  0.34063557  1
  Cl  Cl66  1  0.09491365  0.69616400  0.47844225  1
  Cl  Cl67  1  0.58977646  0.41794798  0.06372587  1
  Cl  Cl68  1  0.09342182  0.72982480  0.62121904  1
  Cl  Cl69  1  0.59904390  0.41010103  0.92056876  1
  O  O70  1  0.58212817  0.43383655  0.76775340  1
  O  O71  1  0.55614800  0.66016890  0.77556270  1
  O  O72  1  0.13767552  0.48350880  0.76888540  1
  O  O73  1  0.11168575  0.70992380  0.77669746  1
  O  O74  1  0.03485625  0.34859190  0.66364014  1
  O  O75  1  0.96900797  0.39622974  0.75897210  1
  O  O76  1  0.64902000  0.79148006  0.87963580  1
  O  O77  1  0.71489865  0.74391073  0.78429680  1
  O  O78  1  0.77810600  0.02079524  0.81668340  1
  O  O79  1  0.90577420  0.11932752  0.72660490  1
  O  O80  1  0.46014518  0.78734714  0.42798096  1
  O  O81  1  0.41778094  0.76191986  0.10831025  1
  O  O82  1  0.26660270  0.35997745  0.43576142  1
  O  O83  1  0.66935605  0.38661570  0.61600680  1
  O  O84  1  0.95245120  0.61921410  0.93259650  1
  O  O85  1  0.61764880  0.43685344  0.44643590  1
  O  O86  1  0.04447826  0.63038033  0.09891913  1
  O  O87  1  0.34715113  0.50569760  0.71535220  1
  O  O88  1  0.34407958  0.63417923  0.82830400  1
  O  O89  1  0.36722994  0.73131950  0.71208507  1
  O  O90  1  0.32400080  0.40855720  0.83157110  1
  O  O91  1  0.23401959  0.33086663  0.11598699  1
