# generated using pymatgen
data_ZnH4C9SNO7
_symmetry_space_group_name_H-M   'P 1'
_cell_length_a   8.47311000
_cell_length_b   9.42723000
_cell_length_c   14.34924000
_cell_angle_alpha   88.49637000
_cell_angle_beta   88.89297000
_cell_angle_gamma   78.70042000
_symmetry_Int_Tables_number   1
_chemical_formula_structural   ZnH4C9SNO7
_chemical_formula_sum   'Zn2 H8 C18 S2 N2 O14'
_cell_volume   1123.46581583
_cell_formula_units_Z   2
loop_
 _symmetry_equiv_pos_site_id
 _symmetry_equiv_pos_as_xyz
  1  'x, y, z'
loop_
 _atom_site_type_symbol
 _atom_site_label
 _atom_site_symmetry_multiplicity
 _atom_site_fract_x
 _atom_site_fract_y
 _atom_site_fract_z
 _atom_site_occupancy
  Zn  Zn0  1  0.63261650  0.25318366  0.22335029  1
  Zn  Zn1  1  0.75001216  0.93268144  0.22636819  1
  H  H2  1  0.85895205  0.67933226  0.10873203  1
  H  H3  1  0.53091717  0.50278395  0.34063542  1
  H  H4  1  0.65184987  0.50171610  0.07404425  1
  H  H5  1  0.73803420  0.68039830  0.37532943  1
  H  H6  1  0.44714266  0.72265095  0.16541575  1
  H  H7  1  0.94272800  0.45946500  0.28395903  1
  H  H8  1  0.08896764  0.22923838  0.46158310  1
  H  H9  1  0.02716723  0.80355900  0.41624728  1
  C  C10  1  0.67021805  0.54370934  0.14376177  1
  C  C11  1  0.71966594  0.63840500  0.30561197  1
  C  C12  1  0.79632944  0.63323540  0.16673763  1
  C  C13  1  0.59355450  0.54887897  0.28263608  1
  C  C14  1  0.55380000  0.65823720  0.19908117  1
  C  C15  1  0.83608407  0.52387714  0.25029257  1
  C  C16  1  0.38159448  0.14419542  0.23739633  1
  C  C17  1  0.15508728  0.03227231  0.26708764  1
  C  C18  1  0.99744430  0.03368346  0.22950831  1
  C  C19  1  0.21080868  0.15597545  0.25965387  1
  C  C20  1  0.66863847  0.14081874  0.39583147  1
  C  C21  1  0.70442620  0.06095141  0.95127565  1
  C  C22  1  0.71163210  0.04336346  0.05253708  1
  C  C23  1  0.67686770  0.12294789  0.49708548  1
  C  C24  1  0.68285490  0.11030780  0.58186310  1
  C  C25  1  0.68900710  0.09707434  0.68170920  1
  C  C26  1  0.69379870  0.08630981  0.76659300  1
  C  C27  1  0.69934950  0.07328192  0.86646240  1
  S  S28  1  0.11509110  0.31520660  0.32204440  1
  S  S29  1  0.21009825  0.91978050  0.36663464  1
  N  N30  1  0.68140930  0.73727286  0.22255729  1
  N  N31  1  0.70847470  0.44484144  0.22681639  1
  O  O32  1  0.47449648  0.01501641  0.22776932  1
  O  O33  1  0.93515050  0.35496077  0.31992882  1
  O  O34  1  0.16348903  0.28920410  0.43515587  1
  O  O35  1  0.29481270  0.77361155  0.33624166  1
  O  O36  1  0.31996920  0.98338550  0.42718000  1
  O  O37  1  0.04664484  0.90102005  0.43011114  1
  O  O38  1  0.90763420  0.16192842  0.22179644  1
  O  O39  1  0.43378580  0.26570930  0.23415427  1
  O  O40  1  0.94834490  0.91123550  0.21541151  1
  O  O41  1  0.17645955  0.44317436  0.28183946  1
  O  O42  1  0.61088175  0.27031144  0.36045736  1
  O  O43  1  0.71985215  0.02753502  0.34329050  1
  O  O44  1  0.66105420  0.15679294  0.10506594  1
  O  O45  1  0.77002480  0.91401640  0.08789921  1
