data_I
_chemical_name_common  'nh3_samples/cif/sample_2'
_cell_length_a  9.38748
_cell_length_b  9.82095
_cell_length_c 14.82406
_cell_angle_alpha 93.82568
_cell_angle_beta  107.36287
_cell_angle_gamma 92.96561
_space_group_name_H-M_alt      'P 1'


loop_
_space_group_symop_operation_xyz
  'x, y, z' 

loop_
_atom_site_label
_atom_site_fract_x
_atom_site_fract_y
_atom_site_fract_z
_atom_site_type_symbol
Cu0   0.41706038 0.8193493 0.5137154    Cu
Cu1   0.5987387 0.054022193 0.5480487    Cu
C2    0.7101246 0.01094842 0.77005476     C
C3    0.64203644 0.9851723 0.8480195     C
C4    0.5896656 0.9661925 0.91470194     C
C5    0.52968186 0.94493264 0.99489653     C
C6    0.479563 0.92730194 0.06270559     C
C7    0.41957918 0.90604204 0.1429002     C
C8    0.36724567 0.88701326 0.20958455     C
C9    0.2991904 0.861183 0.28754792     C
O10   0.6534979 0.94480467 0.6854824     O
O11   0.8247664 0.1011678 0.78913015     O
O12   0.18461247 0.7708863 0.26848465     O
O13   0.35579675 0.9273377 0.37212232     O
H14   0.13058248 0.5126191 0.41099125     H
H15   0.87968457 0.36507112 0.6453624     H
C16   0.377556 0.50453365 0.47821942     C
C17   0.6327283 0.37315726 0.57812625     C
C18   0.50887996 0.5856868 0.5326179     C
C19   0.50138575 0.29200345 0.52371377     C
C20   0.6356157 0.51899487 0.5821878     C
C21   0.3746507 0.35869512 0.4741549     C
C22   0.51335835 0.73736584 0.54212624     C
C23   0.49690804 0.14032432 0.5142164     C
C24   0.23888709 0.56916595 0.42764285     C
C25   0.7713793 0.30852422 0.62869984     C
N26    0.49327 0.0205657 0.50709707     N
N27   0.5169964 0.8571243 0.54924566     N
N28   0.24307992 0.27738708 0.41676465     N
N29   0.7672043 0.60030377 0.6395811     N
O30   0.1790576 0.184914 0.45375326     O
O31   0.19150364 0.29087716 0.32630172     O
O32   0.8312266 0.69277686 0.60259247     O
O33   0.81874615 0.58682734 0.73004967     O
O34   0.2432651 0.6846559 0.4022944     O
O35   0.7670171 0.19303502 0.65401846     O
C36   0.22524749 0.91108316 0.5675898     C
C37   0.071460925 0.93055105 0.54036456     C
C38   0.9413903 0.9468947 0.5173206     C
C39   0.7876001 0.9663836 0.4901738     C
O40   0.2672283 0.7901606 0.5771286     O
O41   0.7456269 0.087326884 0.4807733     O
O42   0.693746 0.8627441 0.4759001     O
O43   0.3191093 0.014743447 0.58200175     O
loop_
_geom_bond_atom_site_label_1
_geom_bond_atom_site_label_2
_geom_bond_distance
_geom_bond_site_symmetry_2
_ccdc_geom_bond_type
Cu0   Cu1    2.71995   1_565     S
Cu0   O10    2.97545       .     S
Cu0   O12    3.62363       .     D
Cu0   N27    0.96859       .     S
Cu0   O40    1.93070       .     S
Cu0   O43    2.45592   1_565     T
Cu1   Cu0    2.71995   1_545     S
Cu1   O11    3.55532       .     T
Cu1   O13    3.04533   1_545     S
Cu1   N26    1.01870       .     T
Cu1   O41    1.95464       .     S
Cu1   O42    2.43779   1_545     D
C2    C3     1.50718   1_545     S
C2    O10    1.31687   1_545     D
C2    O11    1.30748       .     S
C3    C2     1.50718   1_565     S
C3    C4     1.24850       .     T
C4    C3     1.24850       .     S
C4    C5     1.48136       .     T
C5    C4     1.48136       .     S
C5    C6     1.24854   1_556     T
C6    C5     1.24854   1_554     S
C6    C7     1.48136       .     D
C7    C6     1.48136       .     S
C7    C8     1.24839       .     D
C8    C7     1.24839       .     D
C8    C9     1.50707       .     S
C9    C8     1.50707       .     S
C9    O12    1.30753       .     S
C9    O13    1.31692       .     D
O10   Cu0    2.97545       .     A
O10   C2     1.31687   1_565     A
O11   Cu1    3.55532       .     A
O11   C2     1.30748       .     S
O12   Cu0    3.62363       .     A
O12   C9     1.30753       .     T
O13   Cu1    3.04533   1_565     T
O13   C9     1.31692       .     S
H14   C24    1.08468       .     A
H15   C25    1.08467       .     D
C16   C18    1.42286       .     A
C16   C21    1.42802       .     S
C16   C24    1.49201       .     S
C17   C19    1.42303       .     S
C17   C20    1.42802       .     D
C17   C25    1.49187       .     D
C18   C16    1.42286       .     D
C18   C20    1.41686       .     D
C18   C22    1.48412       .     S
C19   C17    1.42303       .     S
C19   C21    1.41681       .     S
C19   C23    1.48412       .     D
C20   C17    1.42802       .     A
C20   C18    1.41686       .     A
C20   N29    1.43786       .     A
C21   C16    1.42802       .     S
C21   C19    1.41681       .     A
C21   N28    1.43773       .     T
C22   C18    1.48412       .     T
C22   N27    1.17164       .     S
C23   C19    1.48412       .     A
C23   N26    1.17164       .     D
C24   H14    1.08468       .     A
C24   C16    1.49201       .     S
C24   O34    1.22091       .     S
C25   H15    1.08467       .     S
C25   C17    1.49187       .     D
C25   O35    1.22072       .     D
N26   Cu1    1.01870       .     D
N26   C23    1.17164       .     S
N27   Cu0    0.96859       .     S
N27   C22    1.17164       .     T
N28   C21    1.43773       .     S
N28   O30    1.30127       .     D
N28   O31    1.30121       .     S
N29   C20    1.43786       .     D
N29   O32    1.30127       .     S
N29   O33    1.30124       .     S
O30   N28    1.30127       .     T
O31   N28    1.30121       .     S
O32   N29    1.30127       .     D
O33   N29    1.30124       .     S
O34   C24    1.22091       .     S
O35   C25    1.22072       .     S
C36   C37    1.40525       .     S
C36   O40    1.27405       .     S
C36   O43    1.27446   1_565     S
C37   C36    1.40525       .     S
C37   C38    1.18829   1_455     S
C38   C37    1.18829   1_655     S
C38   C39    1.40534       .     S
C39   C38    1.40534       .     S
C39   O41    1.27406   1_565     S
C39   O42    1.27445       .     S
O40   Cu0    1.93070       .     S
O40   C36    1.27405       .     S
O41   Cu1    1.95464       .     S
O41   C39    1.27406   1_545     S
O42   Cu1    2.43779   1_565     S
O42   C39    1.27445       .     S
O43   Cu0    2.45592   1_545     S
O43   C36    1.27446   1_545     S
