# generated using pymatgen
data_ZnH11C23N3O11
_symmetry_space_group_name_H-M   'P 1'
_cell_length_a   10.81677000
_cell_length_b   12.05878000
_cell_length_c   19.16240000
_cell_angle_alpha   92.44674000
_cell_angle_beta   91.91457000
_cell_angle_gamma   105.02432000
_symmetry_Int_Tables_number   1
_chemical_formula_structural   ZnH11C23N3O11
_chemical_formula_sum   'Zn2 H22 C46 N6 O22'
_cell_volume   2409.28003356
_cell_formula_units_Z   2
loop_
 _symmetry_equiv_pos_site_id
 _symmetry_equiv_pos_as_xyz
  1  'x, y, z'
loop_
 _atom_site_type_symbol
 _atom_site_label
 _atom_site_symmetry_multiplicity
 _atom_site_fract_x
 _atom_site_fract_y
 _atom_site_fract_z
 _atom_site_occupancy
  _atom_site_charge
  Zn  Zn0  1  0.43175802  0.23367676  0.76789314  1  1.180278
  Zn  Zn1  1  0.15269053  0.09892144  0.75848293  1  1.182503
  H  H2  1  0.55398330  0.17914826  0.44140923  1  0.063159
  H  H3  1  0.30520780  0.29466897  0.12866138  1  0.058065
  H  H4  1  0.51417520  0.20128924  0.56499845  1  0.065504
  H  H5  1  0.25164413  0.30121657  0.00457076  1  0.061752
  H  H6  1  0.28756797  0.95100033  0.31406844  1  0.077565
  H  H7  1  0.50331680  0.31923900  0.21199414  1  0.054962
  H  H8  1  0.29992852  0.95978450  0.18702072  1  0.068171
  H  H9  1  0.48426380  0.31151825  0.33886573  1  0.055619
  H  H10  1  0.01397038  0.50293875  0.67249310  1  0.041903
  H  H11  1  0.16299367  0.43074587  0.72935236  1  0.156262
  H  H12  1  0.39756260  0.87837625  0.78745840  1  0.178527
  H  H13  1  0.72467023  0.51476187  0.80980504  1  0.166724
  H  H14  1  0.94396610  0.00170961  0.69929450  1  0.118476
  H  H15  1  0.53699714  0.77837354  0.80269545  1  0.063398
  H  H16  1  0.81796500  0.54510456  0.70423836  1  0.092323
  H  H17  1  0.75263030  0.76720214  0.78614610  1  0.055634
  H  H18  1  0.23167986  0.72129595  0.87930740  1  0.081886
  H  H19  1  0.49171160  0.68920750  0.88893490  1  0.160802
  H  H20  1  0.09375083  0.63721720  0.63768760  1  0.156042
  H  H21  1  0.35379407  0.60508220  0.64731360  1  0.060135
  H  H22  1  0.06937340  0.55704360  0.78060496  1  0.128031
  H  H23  1  0.51612150  0.76938707  0.74602890  1  0.057744
  C  C24  1  0.29418942  0.16397578  0.90067330  1  0.297162
  C  C25  1  0.29124540  0.16694686  0.62325330  1  0.347635
  C  C26  1  0.20262359  0.12789218  0.50030480  1  0.102990
  C  C27  1  0.38285452  0.07159415  0.99630225  1  0.074738
  C  C28  1  0.22609341  0.11444122  0.42909425  1  0.031387
  C  C29  1  0.41876140  0.07037588  0.06735591  1  0.043702
  C  C30  1  0.35355413  0.13254330  0.40824324  1  0.018152
  C  C31  1  0.38866192  0.15037985  0.11535586  1  0.019528
  C  C32  1  0.45611330  0.16410902  0.45742990  1  -0.053199
  C  C33  1  0.32957074  0.23355553  0.09204175  1  -0.036513
  C  C34  1  0.43344900  0.17818937  0.52730596  1  0.033597
  C  C35  1  0.29664978  0.23602554  0.02185468  1  -0.000171
  C  C36  1  0.30794823  0.16007327  0.54890460  1  -0.097054
  C  C37  1  0.32006598  0.15405382  0.97433656  1  -0.053785
  C  C38  1  0.33558577  0.03111314  0.29192483  1  0.010050
  C  C39  1  0.45792654  0.23828533  0.23408640  1  -0.027097
  C  C40  1  0.34443992  0.03585134  0.21997936  1  0.040763
  C  C41  1  0.44737792  0.23382760  0.30593833  1  -0.028494
  C  C42  1  0.40250080  0.14029242  0.19074206  1  0.015323
  C  C43  1  0.38184252  0.13133276  0.33455184  1  0.014697
  C  C44  1  0.54185694  0.18523501  0.72031720  1  -0.133359
  C  C45  1  0.03384221  0.14580105  0.80928856  1  -0.070619
  C  C46  1  0.90849710  0.15431955  0.78004843  1  0.012522
  C  C47  1  0.65898820  0.17624931  0.75852853  1  -0.006285
  C  C48  1  0.98460203  0.34984097  0.72992770  1  -0.179654
  C  C49  1  0.57751340  0.96053386  0.78375050  1  0.226771
  C  C50  1  0.94793440  0.44063863  0.69974923  1  0.166514
  C  C51  1  0.60958780  0.85683167  0.79470110  1  -0.118625
  C  C52  1  0.83370690  0.46205115  0.71456310  1  -0.175945
  C  C53  1  0.73231540  0.85030530  0.78742886  1  -0.008316
  C  C54  1  0.75478446  0.38665473  0.75669980  1  0.197869
  C  C55  1  0.88953180  0.25891980  0.75738640  1  -0.009755
  C  C56  1  0.82133114  0.94704440  0.76883850  1  0.112862
  C  C57  1  0.76616216  0.27331793  0.75925560  1  -0.043606
  C  C58  1  0.80259360  0.05686008  0.77972830  1  0.030902
  C  C59  1  0.67646027  0.06588517  0.77574810  1  0.064495
  C  C60  1  0.17046522  0.60433900  0.77358960  1  -0.002279
  C  C61  1  0.41501316  0.72210070  0.75303280  1  -0.080303
  C  C62  1  0.25785807  0.69552886  0.82666814  1  -0.061102
  C  C63  1  0.32761797  0.63091020  0.69994180  1  -0.045227
  C  C64  1  0.21669084  0.68616310  0.71450340  1  0.144044
  C  C65  1  0.36878760  0.64027670  0.81211890  1  0.158748
  C  C66  1  0.30207217  0.77654666  0.76633610  1  -0.049262
  C  C67  1  0.28340477  0.54990476  0.76027423  1  -0.080072
  C  C68  1  0.31069806  0.90272033  0.76861537  1  0.011116
  C  C69  1  0.27478537  0.42375708  0.75802010  1  0.113300
  N  N70  1  0.07362234  0.11188526  0.52265190  1  -0.042255
  N  N71  1  0.42004050  0.99617404  0.94605230  1  -0.007564
  N  N72  1  0.12223252  0.09294129  0.37775585  1  -0.054517
  N  N73  1  0.48630350  0.98930000  0.09042148  1  -0.038961
  N  N74  1  0.31757677  0.00119257  0.77048480  1  -0.232972
  N  N75  1  0.26792500  0.32530037  0.75616270  1  -0.226058
  O  O76  1  0.22522886  0.07576998  0.86484385  1  -0.300995
  O  O77  1  0.35639635  0.25675970  0.65912116  1  -0.359998
  O  O78  1  0.35626078  0.25476700  0.87161210  1  -0.400951
  O  O79  1  0.22536442  0.07776271  0.65235290  1  -0.400409
  O  O80  1  0.04711206  0.18269720  0.56943570  1  -0.086295
  O  O81  1  0.98139780  0.02774773  0.49539378  1  -0.076916
  O  O82  1  0.33382120  0.91156640  0.91454220  1  -0.089810
  O  O83  1  0.54077345  0.00175619  0.93948640  1  -0.134592
  O  O84  1  0.06789058  0.17437021  0.36385053  1  -0.083552
  O  O85  1  0.07001809  0.98860157  0.35289580  1  -0.093569
  O  O86  1  0.58461654  0.02237221  0.13445464  1  -0.104621
  O  O87  1  0.44975254  0.88208540  0.06768753  1  -0.090359
  O  O88  1  0.54991340  0.27839342  0.68295056  1  -0.219451
  O  O89  1  0.03476429  0.05127089  0.84252580  1  -0.198983
  O  O90  1  0.47637823  0.08527196  0.69344896  1  -0.170293
  O  O91  1  0.10829925  0.24439228  0.83202730  1  -0.185627
  O  O92  1  0.11015379  0.34997433  0.72964710  1  -0.304432
  O  O93  1  0.45073414  0.95738673  0.78292670  1  -0.323726
  O  O94  1  0.69977915  0.42957646  0.81055033  1  -0.329799
  O  O95  1  0.90563030  0.93021690  0.72181230  1  -0.177131
  O  O96  1  0.44950503  0.61460817  0.86396027  1  -0.282661
  O  O97  1  0.13595818  0.71182890  0.66266245  1  -0.297115
