data_sample_9_relaxed_charged

_audit_creation_method RASPA-1.0
_audit_creation_date 2026-2-5
_audit_author_name ''

_cell_length_a    20.5429
_cell_length_b    31.0776
_cell_length_c    33.2088
_cell_angle_alpha 89.2424
_cell_angle_beta  89.494
_cell_angle_gamma 85.9649
_cell_volume      21146.2

_symmetry_cell_setting          triclinic
_symmetry_space_group_name_Hall 'P 1'
_symmetry_space_group_name_H-M  'P 1'
_symmetry_Int_Tables_number     1

_symmetry_equiv_pos_as_xyz 'x,y,z'

loop_
_atom_site_label
_atom_site_type_symbol
_atom_site_fract_x
_atom_site_fract_y
_atom_site_fract_z
_atom_site_charge
Zn0      Zn     0.376157520000     0.014166675000     0.087255800000     22.2196    
Zn1      Zn     0.231097500000     0.020533260000     0.099785930000    -11.2385    
H2       H      0.323366580000     0.323040150000     0.145102680000     0.095809   
H3       H      0.286671900000     0.211660460000     0.041780920000     0.051462   
H4       H      0.296793100000     0.203414575000     0.173948125000     0.055534   
H5       H      0.313245325000     0.331286050000     0.012935450000     0.078471   
H6       H      0.277100150000     0.123728200000     0.171455785000    -0.057437   
H7       H      0.332938350000     0.410972415000     0.015427810000     0.226196   
H8       H      0.343005330000     0.402736400000     0.147599385000     0.384459   
H9       H      0.267033100000     0.131964300000     0.039284175000    -0.131817   
H10      H      0.132438185000     0.472047300000     0.461994700000    -0.034648   
H11      H      0.090207755000     0.047894620000     0.232634915000     0.061229   
H12      H      0.476267370000     0.067600150000     0.222662510000     0.101895   
H13      H      0.015977430000     0.479576200000     0.455132425000     0.052559   
H14      H      0.386338350000     0.457345750000     0.215499385000     0.033295   
H15      H      0.212188585000     0.034922715000     0.461328030000     0.071536   
H16      H      0.414028200000     0.488491350000     0.477459800000     0.109812   
H17      H      0.368409485000     0.466807485000     0.341431950000     0.009746   
H18      H      0.175103440000     0.493060620000     0.284828400000    -0.021776   
H19      H      0.215324880000     0.007403570000     0.393589320000     0.069694   
H20      H      0.189062550000     0.015890260000     0.214660225000     0.479518   
H21      H      0.416635800000     0.459973250000     0.409397750000     0.001167   
H22      H      0.220653130000     0.456355000000     0.347304750000     0.023795   
H23      H      0.370072930000     0.431185575000     0.283253750000     0.069098   
C24      C      0.273683370000     0.148013550000     0.069505090000    -0.080892   
C25      C      0.336355150000     0.386687070000     0.117378495000     0.350156   
C26      C      0.284550950000     0.191932560000     0.070872875000    -0.051407   
C27      C      0.325487435000     0.342768050000     0.116010695000    -0.154269   
C28      C      0.292776465000     0.211638350000     0.107997680000     0.07874    
C29      C      0.317262085000     0.323062300000     0.078885920000     0.164715   
C30      C      0.290132730000     0.187393560000     0.143724265000    -0.065744   
C31      C      0.319905730000     0.347307100000     0.043159305000    -0.120627   
C32      C      0.279269300000     0.143468550000     0.142359660000    -0.028909   
C33      C      0.330769180000     0.391232135000     0.044523900000     0.223171   
C34      C      0.190482440000     0.000964770000     0.103075950000    -1.26642    
C35      C      0.417025750000     0.031264755000     0.083579920000     0.005547   
C36      C      0.476116850000     0.050210190000     0.160154950000     0.324901   
C37      C      0.109490840000     0.028612975000     0.171458275000     0.008495   
C38      C      0.132384090000     0.489228150000     0.024566340000    -0.28868    
C39      C      0.496758050000     0.499142950000     0.016268620000     0.201881   
C40      C      0.004831685000     0.054804415000     0.197379725000    -0.055842   
C41      C      0.069958250000     0.043779010000     0.203024385000    -0.055395   
C42      C      0.103148220000     0.481792300000     0.488063050000     0.07456    
C43      C      0.036692625000     0.486271200000     0.484100600000    -0.253477   
C44      C      0.082449650000     0.022999050000     0.131954165000    -0.16058    
C45      C      0.014080470000     0.032569830000     0.126566260000    -0.133413   
C46      C      0.024552250000     0.008330915000     0.054890945000    -0.214283   
C47      C      0.093580730000     0.002209500000     0.059388255000     0.046973   
C48      C      0.121000670000     0.008806585000     0.098043040000    -0.11525    
C49      C      0.486371550000     0.023826815000     0.088476545000     1.50832    
C50      C      0.312783100000     0.013724640000     0.474509900000     0.147177   
C51      C      0.299950200000     0.003556340000     0.168596370000     1.10893    
C52      C      0.229428025000     0.498721870000     0.229874210000    -0.108946   
C53      C      0.308454500000     0.025881395000     0.016710760000     0.011504   
C54      C      0.290139675000     0.491116150000     0.210673735000    -0.320151   
C55      C      0.339999675000     0.465793075000     0.230196370000     0.160317   
C56      C      0.258490850000     0.001882050000     0.411871550000     0.127531   
C57      C      0.330610000000     0.450414630000     0.268909750000    -0.139265   
C58      C      0.272299400000     0.461804750000     0.289543700000     0.065038   
C59      C      0.220773550000     0.484496830000     0.269386500000    -0.063066   
C60      C      0.257107400000     0.018628325000     0.450359850000    -0.03876    
C61      C      0.370417650000     0.492767485000     0.459325200000    -0.319123   
C62      C      0.371746100000     0.475968250000     0.420788525000     0.098346   
C63      C      0.315566750000     0.479698400000     0.397149700000    -0.13573    
C64      C      0.268532850000     0.457467650000     0.333408030000    -0.096384   
C65      C      0.320660150000     0.465341900000     0.355463775000     6.4e-05    
Br66     Br     0.198637450000     0.017422230000     0.189030425000    -0.833183   
Br67     Br     0.225757510000     0.480623125000     0.019890865000     0.155484   
Br68     Br     0.406090350000     0.001056895000     0.000764105000     0.691039   
Br69     Br     0.385722800000     0.072379150000     0.161429350000    -0.452077   
N70      N      0.271044670000     0.123767905000     0.105262235000    -0.570571   
N71      N      0.338993800000     0.410932720000     0.081621335000     0.924      
N72      N      0.303862750000     0.256538600000     0.109392920000    -0.079318   
N73      N      0.306175700000     0.278162000000     0.077490660000    -0.091071   
O74      O      0.213754865000     0.463319150000     0.113542170000     1.15023    
O75      O      0.380383580000     0.000107145000     0.088924110000    -31.2435    
O76      O      0.393929600000     0.068790480000     0.072885560000    -1.07813    
O77      O      0.227300865000     0.032002480000     0.097503625000     17.5751    
O78      O      0.249926950000     0.014460135000     0.146215690000    -0.867847   
O79      O      0.357540580000     0.495640785000     0.153490990000     1.65759    
O80      O      0.251905620000     0.037984905000     0.031740130000    -0.969055   
O81      O      0.359519335000     0.019165540000     0.039015410000     0.88097    
Zn0      Zn     0.376157520000     0.014166675000     0.587255800000     22.2196    
Zn1      Zn     0.231097500000     0.020533260000     0.599785930000    -11.2385    
H2       H      0.323366580000     0.323040150000     0.645102680000     0.095809   
H3       H      0.286671900000     0.211660460000     0.541780920000     0.051462   
H4       H      0.296793100000     0.203414575000     0.673948125000     0.055534   
H5       H      0.313245325000     0.331286050000     0.512935450000     0.078471   
H6       H      0.277100150000     0.123728200000     0.671455785000    -0.057437   
H7       H      0.332938350000     0.410972415000     0.515427810000     0.226196   
H8       H      0.343005330000     0.402736400000     0.647599385000     0.384459   
H9       H      0.267033100000     0.131964300000     0.539284175000    -0.131817   
H10      H      0.132438185000     0.472047300000     0.961994700000    -0.034648   
H11      H      0.090207755000     0.047894620000     0.732634915000     0.061229   
H12      H      0.476267370000     0.067600150000     0.722662510000     0.101895   
H13      H      0.015977430000     0.479576200000     0.955132425000     0.052559   
H14      H      0.386338350000     0.457345750000     0.715499385000     0.033295   
H15      H      0.212188585000     0.034922715000     0.961328030000     0.071536   
H16      H      0.414028200000     0.488491350000     0.977459800000     0.109812   
H17      H      0.368409485000     0.466807485000     0.841431950000     0.009746   
H18      H      0.175103440000     0.493060620000     0.784828400000    -0.021776   
H19      H      0.215324880000     0.007403570000     0.893589320000     0.069694   
H20      H      0.189062550000     0.015890260000     0.714660225000     0.479518   
H21      H      0.416635800000     0.459973250000     0.909397750000     0.001167   
H22      H      0.220653130000     0.456355000000     0.847304750000     0.023795   
H23      H      0.370072930000     0.431185575000     0.783253750000     0.069098   
C24      C      0.273683370000     0.148013550000     0.569505090000    -0.080892   
C25      C      0.336355150000     0.386687070000     0.617378495000     0.350156   
C26      C      0.284550950000     0.191932560000     0.570872875000    -0.051407   
C27      C      0.325487435000     0.342768050000     0.616010695000    -0.154269   
C28      C      0.292776465000     0.211638350000     0.607997680000     0.07874    
C29      C      0.317262085000     0.323062300000     0.578885920000     0.164715   
C30      C      0.290132730000     0.187393560000     0.643724265000    -0.065744   
C31      C      0.319905730000     0.347307100000     0.543159305000    -0.120627   
C32      C      0.279269300000     0.143468550000     0.642359660000    -0.028909   
C33      C      0.330769180000     0.391232135000     0.544523900000     0.223171   
C34      C      0.190482440000     0.000964770000     0.603075950000    -1.26642    
C35      C      0.417025750000     0.031264755000     0.583579920000     0.005547   
C36      C      0.476116850000     0.050210190000     0.660154950000     0.324901   
C37      C      0.109490840000     0.028612975000     0.671458275000     0.008495   
C38      C      0.132384090000     0.489228150000     0.524566340000    -0.28868    
C39      C      0.496758050000     0.499142950000     0.516268620000     0.201881   
C40      C      0.004831685000     0.054804415000     0.697379725000    -0.055842   
C41      C      0.069958250000     0.043779010000     0.703024385000    -0.055395   
C42      C      0.103148220000     0.481792300000     0.988063050000     0.07456    
C43      C      0.036692625000     0.486271200000     0.984100600000    -0.253477   
C44      C      0.082449650000     0.022999050000     0.631954165000    -0.16058    
C45      C      0.014080470000     0.032569830000     0.626566260000    -0.133413   
C46      C      0.024552250000     0.008330915000     0.554890945000    -0.214283   
C47      C      0.093580730000     0.002209500000     0.559388255000     0.046973   
C48      C      0.121000670000     0.008806585000     0.598043040000    -0.11525    
C49      C      0.486371550000     0.023826815000     0.588476545000     1.50832    
C50      C      0.312783100000     0.013724640000     0.974509900000     0.147177   
C51      C      0.299950200000     0.003556340000     0.668596370000     1.10893    
C52      C      0.229428025000     0.498721870000     0.729874210000    -0.108946   
C53      C      0.308454500000     0.025881395000     0.516710760000     0.011504   
C54      C      0.290139675000     0.491116150000     0.710673735000    -0.320151   
C55      C      0.339999675000     0.465793075000     0.730196370000     0.160317   
C56      C      0.258490850000     0.001882050000     0.911871550000     0.127531   
C57      C      0.330610000000     0.450414630000     0.768909750000    -0.139265   
C58      C      0.272299400000     0.461804750000     0.789543700000     0.065038   
C59      C      0.220773550000     0.484496830000     0.769386500000    -0.063066   
C60      C      0.257107400000     0.018628325000     0.950359850000    -0.03876    
C61      C      0.370417650000     0.492767485000     0.959325200000    -0.319123   
C62      C      0.371746100000     0.475968250000     0.920788525000     0.098346   
C63      C      0.315566750000     0.479698400000     0.897149700000    -0.13573    
C64      C      0.268532850000     0.457467650000     0.833408030000    -0.096384   
C65      C      0.320660150000     0.465341900000     0.855463775000     6.4e-05    
Br66     Br     0.198637450000     0.017422230000     0.689030425000    -0.833183   
Br67     Br     0.225757510000     0.480623125000     0.519890865000     0.155484   
Br68     Br     0.406090350000     0.001056895000     0.500764105000     0.691039   
Br69     Br     0.385722800000     0.072379150000     0.661429350000    -0.452077   
N70      N      0.271044670000     0.123767905000     0.605262235000    -0.570571   
N71      N      0.338993800000     0.410932720000     0.581621335000     0.924      
N72      N      0.303862750000     0.256538600000     0.609392920000    -0.079318   
N73      N      0.306175700000     0.278162000000     0.577490660000    -0.091071   
O74      O      0.213754865000     0.463319150000     0.613542170000     1.15023    
O75      O      0.380383580000     0.000107145000     0.588924110000    -31.2435    
O76      O      0.393929600000     0.068790480000     0.572885560000    -1.07813    
O77      O      0.227300865000     0.032002480000     0.597503625000     17.5751    
O78      O      0.249926950000     0.014460135000     0.646215690000    -0.867847   
O79      O      0.357540580000     0.495640785000     0.653490990000     1.65759    
O80      O      0.251905620000     0.037984905000     0.531740130000    -0.969055   
O81      O      0.359519335000     0.019165540000     0.539015410000     0.88097    
Zn0      Zn     0.376157520000     0.514166675000     0.087255800000     22.2196    
Zn1      Zn     0.231097500000     0.520533260000     0.099785930000    -11.2385    
H2       H      0.323366580000     0.823040150000     0.145102680000     0.095809   
H3       H      0.286671900000     0.711660460000     0.041780920000     0.051462   
H4       H      0.296793100000     0.703414575000     0.173948125000     0.055534   
H5       H      0.313245325000     0.831286050000     0.012935450000     0.078471   
H6       H      0.277100150000     0.623728200000     0.171455785000    -0.057437   
H7       H      0.332938350000     0.910972415000     0.015427810000     0.226196   
H8       H      0.343005330000     0.902736400000     0.147599385000     0.384459   
H9       H      0.267033100000     0.631964300000     0.039284175000    -0.131817   
H10      H      0.132438185000     0.972047300000     0.461994700000    -0.034648   
H11      H      0.090207755000     0.547894620000     0.232634915000     0.061229   
H12      H      0.476267370000     0.567600150000     0.222662510000     0.101895   
H13      H      0.015977430000     0.979576200000     0.455132425000     0.052559   
H14      H      0.386338350000     0.957345750000     0.215499385000     0.033295   
H15      H      0.212188585000     0.534922715000     0.461328030000     0.071536   
H16      H      0.414028200000     0.988491350000     0.477459800000     0.109812   
H17      H      0.368409485000     0.966807485000     0.341431950000     0.009746   
H18      H      0.175103440000     0.993060620000     0.284828400000    -0.021776   
H19      H      0.215324880000     0.507403570000     0.393589320000     0.069694   
H20      H      0.189062550000     0.515890260000     0.214660225000     0.479518   
H21      H      0.416635800000     0.959973250000     0.409397750000     0.001167   
H22      H      0.220653130000     0.956355000000     0.347304750000     0.023795   
H23      H      0.370072930000     0.931185575000     0.283253750000     0.069098   
C24      C      0.273683370000     0.648013550000     0.069505090000    -0.080892   
C25      C      0.336355150000     0.886687070000     0.117378495000     0.350156   
C26      C      0.284550950000     0.691932560000     0.070872875000    -0.051407   
C27      C      0.325487435000     0.842768050000     0.116010695000    -0.154269   
C28      C      0.292776465000     0.711638350000     0.107997680000     0.07874    
C29      C      0.317262085000     0.823062300000     0.078885920000     0.164715   
C30      C      0.290132730000     0.687393560000     0.143724265000    -0.065744   
C31      C      0.319905730000     0.847307100000     0.043159305000    -0.120627   
C32      C      0.279269300000     0.643468550000     0.142359660000    -0.028909   
C33      C      0.330769180000     0.891232135000     0.044523900000     0.223171   
C34      C      0.190482440000     0.500964770000     0.103075950000    -1.26642    
C35      C      0.417025750000     0.531264755000     0.083579920000     0.005547   
C36      C      0.476116850000     0.550210190000     0.160154950000     0.324901   
C37      C      0.109490840000     0.528612975000     0.171458275000     0.008495   
C38      C      0.132384090000     0.989228150000     0.024566340000    -0.28868    
C39      C      0.496758050000     0.999142950000     0.016268620000     0.201881   
C40      C      0.004831685000     0.554804415000     0.197379725000    -0.055842   
C41      C      0.069958250000     0.543779010000     0.203024385000    -0.055395   
C42      C      0.103148220000     0.981792300000     0.488063050000     0.07456    
C43      C      0.036692625000     0.986271200000     0.484100600000    -0.253477   
C44      C      0.082449650000     0.522999050000     0.131954165000    -0.16058    
C45      C      0.014080470000     0.532569830000     0.126566260000    -0.133413   
C46      C      0.024552250000     0.508330915000     0.054890945000    -0.214283   
C47      C      0.093580730000     0.502209500000     0.059388255000     0.046973   
C48      C      0.121000670000     0.508806585000     0.098043040000    -0.11525    
C49      C      0.486371550000     0.523826815000     0.088476545000     1.50832    
C50      C      0.312783100000     0.513724640000     0.474509900000     0.147177   
C51      C      0.299950200000     0.503556340000     0.168596370000     1.10893    
C52      C      0.229428025000     0.998721870000     0.229874210000    -0.108946   
C53      C      0.308454500000     0.525881395000     0.016710760000     0.011504   
C54      C      0.290139675000     0.991116150000     0.210673735000    -0.320151   
C55      C      0.339999675000     0.965793075000     0.230196370000     0.160317   
C56      C      0.258490850000     0.501882050000     0.411871550000     0.127531   
C57      C      0.330610000000     0.950414630000     0.268909750000    -0.139265   
C58      C      0.272299400000     0.961804750000     0.289543700000     0.065038   
C59      C      0.220773550000     0.984496830000     0.269386500000    -0.063066   
C60      C      0.257107400000     0.518628325000     0.450359850000    -0.03876    
C61      C      0.370417650000     0.992767485000     0.459325200000    -0.319123   
C62      C      0.371746100000     0.975968250000     0.420788525000     0.098346   
C63      C      0.315566750000     0.979698400000     0.397149700000    -0.13573    
C64      C      0.268532850000     0.957467650000     0.333408030000    -0.096384   
C65      C      0.320660150000     0.965341900000     0.355463775000     6.4e-05    
Br66     Br     0.198637450000     0.517422230000     0.189030425000    -0.833183   
Br67     Br     0.225757510000     0.980623125000     0.019890865000     0.155484   
Br68     Br     0.406090350000     0.501056895000     0.000764105000     0.691039   
Br69     Br     0.385722800000     0.572379150000     0.161429350000    -0.452077   
N70      N      0.271044670000     0.623767905000     0.105262235000    -0.570571   
N71      N      0.338993800000     0.910932720000     0.081621335000     0.924      
N72      N      0.303862750000     0.756538600000     0.109392920000    -0.079318   
N73      N      0.306175700000     0.778162000000     0.077490660000    -0.091071   
O74      O      0.213754865000     0.963319150000     0.113542170000     1.15023    
O75      O      0.380383580000     0.500107145000     0.088924110000    -31.2435    
O76      O      0.393929600000     0.568790480000     0.072885560000    -1.07813    
O77      O      0.227300865000     0.532002480000     0.097503625000     17.5751    
O78      O      0.249926950000     0.514460135000     0.146215690000    -0.867847   
O79      O      0.357540580000     0.995640785000     0.153490990000     1.65759    
O80      O      0.251905620000     0.537984905000     0.031740130000    -0.969055   
O81      O      0.359519335000     0.519165540000     0.039015410000     0.88097    
Zn0      Zn     0.376157520000     0.514166675000     0.587255800000     22.2196    
Zn1      Zn     0.231097500000     0.520533260000     0.599785930000    -11.2385    
H2       H      0.323366580000     0.823040150000     0.645102680000     0.095809   
H3       H      0.286671900000     0.711660460000     0.541780920000     0.051462   
H4       H      0.296793100000     0.703414575000     0.673948125000     0.055534   
H5       H      0.313245325000     0.831286050000     0.512935450000     0.078471   
H6       H      0.277100150000     0.623728200000     0.671455785000    -0.057437   
H7       H      0.332938350000     0.910972415000     0.515427810000     0.226196   
H8       H      0.343005330000     0.902736400000     0.647599385000     0.384459   
H9       H      0.267033100000     0.631964300000     0.539284175000    -0.131817   
H10      H      0.132438185000     0.972047300000     0.961994700000    -0.034648   
H11      H      0.090207755000     0.547894620000     0.732634915000     0.061229   
H12      H      0.476267370000     0.567600150000     0.722662510000     0.101895   
H13      H      0.015977430000     0.979576200000     0.955132425000     0.052559   
H14      H      0.386338350000     0.957345750000     0.715499385000     0.033295   
H15      H      0.212188585000     0.534922715000     0.961328030000     0.071536   
H16      H      0.414028200000     0.988491350000     0.977459800000     0.109812   
H17      H      0.368409485000     0.966807485000     0.841431950000     0.009746   
H18      H      0.175103440000     0.993060620000     0.784828400000    -0.021776   
H19      H      0.215324880000     0.507403570000     0.893589320000     0.069694   
H20      H      0.189062550000     0.515890260000     0.714660225000     0.479518   
H21      H      0.416635800000     0.959973250000     0.909397750000     0.001167   
H22      H      0.220653130000     0.956355000000     0.847304750000     0.023795   
H23      H      0.370072930000     0.931185575000     0.783253750000     0.069098   
C24      C      0.273683370000     0.648013550000     0.569505090000    -0.080892   
C25      C      0.336355150000     0.886687070000     0.617378495000     0.350156   
C26      C      0.284550950000     0.691932560000     0.570872875000    -0.051407   
C27      C      0.325487435000     0.842768050000     0.616010695000    -0.154269   
C28      C      0.292776465000     0.711638350000     0.607997680000     0.07874    
C29      C      0.317262085000     0.823062300000     0.578885920000     0.164715   
C30      C      0.290132730000     0.687393560000     0.643724265000    -0.065744   
C31      C      0.319905730000     0.847307100000     0.543159305000    -0.120627   
C32      C      0.279269300000     0.643468550000     0.642359660000    -0.028909   
C33      C      0.330769180000     0.891232135000     0.544523900000     0.223171   
C34      C      0.190482440000     0.500964770000     0.603075950000    -1.26642    
C35      C      0.417025750000     0.531264755000     0.583579920000     0.005547   
C36      C      0.476116850000     0.550210190000     0.660154950000     0.324901   
C37      C      0.109490840000     0.528612975000     0.671458275000     0.008495   
C38      C      0.132384090000     0.989228150000     0.524566340000    -0.28868    
C39      C      0.496758050000     0.999142950000     0.516268620000     0.201881   
C40      C      0.004831685000     0.554804415000     0.697379725000    -0.055842   
C41      C      0.069958250000     0.543779010000     0.703024385000    -0.055395   
C42      C      0.103148220000     0.981792300000     0.988063050000     0.07456    
C43      C      0.036692625000     0.986271200000     0.984100600000    -0.253477   
C44      C      0.082449650000     0.522999050000     0.631954165000    -0.16058    
C45      C      0.014080470000     0.532569830000     0.626566260000    -0.133413   
C46      C      0.024552250000     0.508330915000     0.554890945000    -0.214283   
C47      C      0.093580730000     0.502209500000     0.559388255000     0.046973   
C48      C      0.121000670000     0.508806585000     0.598043040000    -0.11525    
C49      C      0.486371550000     0.523826815000     0.588476545000     1.50832    
C50      C      0.312783100000     0.513724640000     0.974509900000     0.147177   
C51      C      0.299950200000     0.503556340000     0.668596370000     1.10893    
C52      C      0.229428025000     0.998721870000     0.729874210000    -0.108946   
C53      C      0.308454500000     0.525881395000     0.516710760000     0.011504   
C54      C      0.290139675000     0.991116150000     0.710673735000    -0.320151   
C55      C      0.339999675000     0.965793075000     0.730196370000     0.160317   
C56      C      0.258490850000     0.501882050000     0.911871550000     0.127531   
C57      C      0.330610000000     0.950414630000     0.768909750000    -0.139265   
C58      C      0.272299400000     0.961804750000     0.789543700000     0.065038   
C59      C      0.220773550000     0.984496830000     0.769386500000    -0.063066   
C60      C      0.257107400000     0.518628325000     0.950359850000    -0.03876    
C61      C      0.370417650000     0.992767485000     0.959325200000    -0.319123   
C62      C      0.371746100000     0.975968250000     0.920788525000     0.098346   
C63      C      0.315566750000     0.979698400000     0.897149700000    -0.13573    
C64      C      0.268532850000     0.957467650000     0.833408030000    -0.096384   
C65      C      0.320660150000     0.965341900000     0.855463775000     6.4e-05    
Br66     Br     0.198637450000     0.517422230000     0.689030425000    -0.833183   
Br67     Br     0.225757510000     0.980623125000     0.519890865000     0.155484   
Br68     Br     0.406090350000     0.501056895000     0.500764105000     0.691039   
Br69     Br     0.385722800000     0.572379150000     0.661429350000    -0.452077   
N70      N      0.271044670000     0.623767905000     0.605262235000    -0.570571   
N71      N      0.338993800000     0.910932720000     0.581621335000     0.924      
N72      N      0.303862750000     0.756538600000     0.609392920000    -0.079318   
N73      N      0.306175700000     0.778162000000     0.577490660000    -0.091071   
O74      O      0.213754865000     0.963319150000     0.613542170000     1.15023    
O75      O      0.380383580000     0.500107145000     0.588924110000    -31.2435    
O76      O      0.393929600000     0.568790480000     0.572885560000    -1.07813    
O77      O      0.227300865000     0.532002480000     0.597503625000     17.5751    
O78      O      0.249926950000     0.514460135000     0.646215690000    -0.867847   
O79      O      0.357540580000     0.995640785000     0.653490990000     1.65759    
O80      O      0.251905620000     0.537984905000     0.531740130000    -0.969055   
O81      O      0.359519335000     0.519165540000     0.539015410000     0.88097    
Zn0      Zn     0.876157520000     0.014166675000     0.087255800000     22.2196    
Zn1      Zn     0.731097500000     0.020533260000     0.099785930000    -11.2385    
H2       H      0.823366580000     0.323040150000     0.145102680000     0.095809   
H3       H      0.786671900000     0.211660460000     0.041780920000     0.051462   
H4       H      0.796793100000     0.203414575000     0.173948125000     0.055534   
H5       H      0.813245325000     0.331286050000     0.012935450000     0.078471   
H6       H      0.777100150000     0.123728200000     0.171455785000    -0.057437   
H7       H      0.832938350000     0.410972415000     0.015427810000     0.226196   
H8       H      0.843005330000     0.402736400000     0.147599385000     0.384459   
H9       H      0.767033100000     0.131964300000     0.039284175000    -0.131817   
H10      H      0.632438185000     0.472047300000     0.461994700000    -0.034648   
H11      H      0.590207755000     0.047894620000     0.232634915000     0.061229   
H12      H      0.976267370000     0.067600150000     0.222662510000     0.101895   
H13      H      0.515977430000     0.479576200000     0.455132425000     0.052559   
H14      H      0.886338350000     0.457345750000     0.215499385000     0.033295   
H15      H      0.712188585000     0.034922715000     0.461328030000     0.071536   
H16      H      0.914028200000     0.488491350000     0.477459800000     0.109812   
H17      H      0.868409485000     0.466807485000     0.341431950000     0.009746   
H18      H      0.675103440000     0.493060620000     0.284828400000    -0.021776   
H19      H      0.715324880000     0.007403570000     0.393589320000     0.069694   
H20      H      0.689062550000     0.015890260000     0.214660225000     0.479518   
H21      H      0.916635800000     0.459973250000     0.409397750000     0.001167   
H22      H      0.720653130000     0.456355000000     0.347304750000     0.023795   
H23      H      0.870072930000     0.431185575000     0.283253750000     0.069098   
C24      C      0.773683370000     0.148013550000     0.069505090000    -0.080892   
C25      C      0.836355150000     0.386687070000     0.117378495000     0.350156   
C26      C      0.784550950000     0.191932560000     0.070872875000    -0.051407   
C27      C      0.825487435000     0.342768050000     0.116010695000    -0.154269   
C28      C      0.792776465000     0.211638350000     0.107997680000     0.07874    
C29      C      0.817262085000     0.323062300000     0.078885920000     0.164715   
C30      C      0.790132730000     0.187393560000     0.143724265000    -0.065744   
C31      C      0.819905730000     0.347307100000     0.043159305000    -0.120627   
C32      C      0.779269300000     0.143468550000     0.142359660000    -0.028909   
C33      C      0.830769180000     0.391232135000     0.044523900000     0.223171   
C34      C      0.690482440000     0.000964770000     0.103075950000    -1.26642    
C35      C      0.917025750000     0.031264755000     0.083579920000     0.005547   
C36      C      0.976116850000     0.050210190000     0.160154950000     0.324901   
C37      C      0.609490840000     0.028612975000     0.171458275000     0.008495   
C38      C      0.632384090000     0.489228150000     0.024566340000    -0.28868    
C39      C      0.996758050000     0.499142950000     0.016268620000     0.201881   
C40      C      0.504831685000     0.054804415000     0.197379725000    -0.055842   
C41      C      0.569958250000     0.043779010000     0.203024385000    -0.055395   
C42      C      0.603148220000     0.481792300000     0.488063050000     0.07456    
C43      C      0.536692625000     0.486271200000     0.484100600000    -0.253477   
C44      C      0.582449650000     0.022999050000     0.131954165000    -0.16058    
C45      C      0.514080470000     0.032569830000     0.126566260000    -0.133413   
C46      C      0.524552250000     0.008330915000     0.054890945000    -0.214283   
C47      C      0.593580730000     0.002209500000     0.059388255000     0.046973   
C48      C      0.621000670000     0.008806585000     0.098043040000    -0.11525    
C49      C      0.986371550000     0.023826815000     0.088476545000     1.50832    
C50      C      0.812783100000     0.013724640000     0.474509900000     0.147177   
C51      C      0.799950200000     0.003556340000     0.168596370000     1.10893    
C52      C      0.729428025000     0.498721870000     0.229874210000    -0.108946   
C53      C      0.808454500000     0.025881395000     0.016710760000     0.011504   
C54      C      0.790139675000     0.491116150000     0.210673735000    -0.320151   
C55      C      0.839999675000     0.465793075000     0.230196370000     0.160317   
C56      C      0.758490850000     0.001882050000     0.411871550000     0.127531   
C57      C      0.830610000000     0.450414630000     0.268909750000    -0.139265   
C58      C      0.772299400000     0.461804750000     0.289543700000     0.065038   
C59      C      0.720773550000     0.484496830000     0.269386500000    -0.063066   
C60      C      0.757107400000     0.018628325000     0.450359850000    -0.03876    
C61      C      0.870417650000     0.492767485000     0.459325200000    -0.319123   
C62      C      0.871746100000     0.475968250000     0.420788525000     0.098346   
C63      C      0.815566750000     0.479698400000     0.397149700000    -0.13573    
C64      C      0.768532850000     0.457467650000     0.333408030000    -0.096384   
C65      C      0.820660150000     0.465341900000     0.355463775000     6.4e-05    
Br66     Br     0.698637450000     0.017422230000     0.189030425000    -0.833183   
Br67     Br     0.725757510000     0.480623125000     0.019890865000     0.155484   
Br68     Br     0.906090350000     0.001056895000     0.000764105000     0.691039   
Br69     Br     0.885722800000     0.072379150000     0.161429350000    -0.452077   
N70      N      0.771044670000     0.123767905000     0.105262235000    -0.570571   
N71      N      0.838993800000     0.410932720000     0.081621335000     0.924      
N72      N      0.803862750000     0.256538600000     0.109392920000    -0.079318   
N73      N      0.806175700000     0.278162000000     0.077490660000    -0.091071   
O74      O      0.713754865000     0.463319150000     0.113542170000     1.15023    
O75      O      0.880383580000     0.000107145000     0.088924110000    -31.2435    
O76      O      0.893929600000     0.068790480000     0.072885560000    -1.07813    
O77      O      0.727300865000     0.032002480000     0.097503625000     17.5751    
O78      O      0.749926950000     0.014460135000     0.146215690000    -0.867847   
O79      O      0.857540580000     0.495640785000     0.153490990000     1.65759    
O80      O      0.751905620000     0.037984905000     0.031740130000    -0.969055   
O81      O      0.859519335000     0.019165540000     0.039015410000     0.88097    
Zn0      Zn     0.876157520000     0.014166675000     0.587255800000     22.2196    
Zn1      Zn     0.731097500000     0.020533260000     0.599785930000    -11.2385    
H2       H      0.823366580000     0.323040150000     0.645102680000     0.095809   
H3       H      0.786671900000     0.211660460000     0.541780920000     0.051462   
H4       H      0.796793100000     0.203414575000     0.673948125000     0.055534   
H5       H      0.813245325000     0.331286050000     0.512935450000     0.078471   
H6       H      0.777100150000     0.123728200000     0.671455785000    -0.057437   
H7       H      0.832938350000     0.410972415000     0.515427810000     0.226196   
H8       H      0.843005330000     0.402736400000     0.647599385000     0.384459   
H9       H      0.767033100000     0.131964300000     0.539284175000    -0.131817   
H10      H      0.632438185000     0.472047300000     0.961994700000    -0.034648   
H11      H      0.590207755000     0.047894620000     0.732634915000     0.061229   
H12      H      0.976267370000     0.067600150000     0.722662510000     0.101895   
H13      H      0.515977430000     0.479576200000     0.955132425000     0.052559   
H14      H      0.886338350000     0.457345750000     0.715499385000     0.033295   
H15      H      0.712188585000     0.034922715000     0.961328030000     0.071536   
H16      H      0.914028200000     0.488491350000     0.977459800000     0.109812   
H17      H      0.868409485000     0.466807485000     0.841431950000     0.009746   
H18      H      0.675103440000     0.493060620000     0.784828400000    -0.021776   
H19      H      0.715324880000     0.007403570000     0.893589320000     0.069694   
H20      H      0.689062550000     0.015890260000     0.714660225000     0.479518   
H21      H      0.916635800000     0.459973250000     0.909397750000     0.001167   
H22      H      0.720653130000     0.456355000000     0.847304750000     0.023795   
H23      H      0.870072930000     0.431185575000     0.783253750000     0.069098   
C24      C      0.773683370000     0.148013550000     0.569505090000    -0.080892   
C25      C      0.836355150000     0.386687070000     0.617378495000     0.350156   
C26      C      0.784550950000     0.191932560000     0.570872875000    -0.051407   
C27      C      0.825487435000     0.342768050000     0.616010695000    -0.154269   
C28      C      0.792776465000     0.211638350000     0.607997680000     0.07874    
C29      C      0.817262085000     0.323062300000     0.578885920000     0.164715   
C30      C      0.790132730000     0.187393560000     0.643724265000    -0.065744   
C31      C      0.819905730000     0.347307100000     0.543159305000    -0.120627   
C32      C      0.779269300000     0.143468550000     0.642359660000    -0.028909   
C33      C      0.830769180000     0.391232135000     0.544523900000     0.223171   
C34      C      0.690482440000     0.000964770000     0.603075950000    -1.26642    
C35      C      0.917025750000     0.031264755000     0.583579920000     0.005547   
C36      C      0.976116850000     0.050210190000     0.660154950000     0.324901   
C37      C      0.609490840000     0.028612975000     0.671458275000     0.008495   
C38      C      0.632384090000     0.489228150000     0.524566340000    -0.28868    
C39      C      0.996758050000     0.499142950000     0.516268620000     0.201881   
C40      C      0.504831685000     0.054804415000     0.697379725000    -0.055842   
C41      C      0.569958250000     0.043779010000     0.703024385000    -0.055395   
C42      C      0.603148220000     0.481792300000     0.988063050000     0.07456    
C43      C      0.536692625000     0.486271200000     0.984100600000    -0.253477   
C44      C      0.582449650000     0.022999050000     0.631954165000    -0.16058    
C45      C      0.514080470000     0.032569830000     0.626566260000    -0.133413   
C46      C      0.524552250000     0.008330915000     0.554890945000    -0.214283   
C47      C      0.593580730000     0.002209500000     0.559388255000     0.046973   
C48      C      0.621000670000     0.008806585000     0.598043040000    -0.11525    
C49      C      0.986371550000     0.023826815000     0.588476545000     1.50832    
C50      C      0.812783100000     0.013724640000     0.974509900000     0.147177   
C51      C      0.799950200000     0.003556340000     0.668596370000     1.10893    
C52      C      0.729428025000     0.498721870000     0.729874210000    -0.108946   
C53      C      0.808454500000     0.025881395000     0.516710760000     0.011504   
C54      C      0.790139675000     0.491116150000     0.710673735000    -0.320151   
C55      C      0.839999675000     0.465793075000     0.730196370000     0.160317   
C56      C      0.758490850000     0.001882050000     0.911871550000     0.127531   
C57      C      0.830610000000     0.450414630000     0.768909750000    -0.139265   
C58      C      0.772299400000     0.461804750000     0.789543700000     0.065038   
C59      C      0.720773550000     0.484496830000     0.769386500000    -0.063066   
C60      C      0.757107400000     0.018628325000     0.950359850000    -0.03876    
C61      C      0.870417650000     0.492767485000     0.959325200000    -0.319123   
C62      C      0.871746100000     0.475968250000     0.920788525000     0.098346   
C63      C      0.815566750000     0.479698400000     0.897149700000    -0.13573    
C64      C      0.768532850000     0.457467650000     0.833408030000    -0.096384   
C65      C      0.820660150000     0.465341900000     0.855463775000     6.4e-05    
Br66     Br     0.698637450000     0.017422230000     0.689030425000    -0.833183   
Br67     Br     0.725757510000     0.480623125000     0.519890865000     0.155484   
Br68     Br     0.906090350000     0.001056895000     0.500764105000     0.691039   
Br69     Br     0.885722800000     0.072379150000     0.661429350000    -0.452077   
N70      N      0.771044670000     0.123767905000     0.605262235000    -0.570571   
N71      N      0.838993800000     0.410932720000     0.581621335000     0.924      
N72      N      0.803862750000     0.256538600000     0.609392920000    -0.079318   
N73      N      0.806175700000     0.278162000000     0.577490660000    -0.091071   
O74      O      0.713754865000     0.463319150000     0.613542170000     1.15023    
O75      O      0.880383580000     0.000107145000     0.588924110000    -31.2435    
O76      O      0.893929600000     0.068790480000     0.572885560000    -1.07813    
O77      O      0.727300865000     0.032002480000     0.597503625000     17.5751    
O78      O      0.749926950000     0.014460135000     0.646215690000    -0.867847   
O79      O      0.857540580000     0.495640785000     0.653490990000     1.65759    
O80      O      0.751905620000     0.037984905000     0.531740130000    -0.969055   
O81      O      0.859519335000     0.019165540000     0.539015410000     0.88097    
Zn0      Zn     0.876157520000     0.514166675000     0.087255800000     22.2196    
Zn1      Zn     0.731097500000     0.520533260000     0.099785930000    -11.2385    
H2       H      0.823366580000     0.823040150000     0.145102680000     0.095809   
H3       H      0.786671900000     0.711660460000     0.041780920000     0.051462   
H4       H      0.796793100000     0.703414575000     0.173948125000     0.055534   
H5       H      0.813245325000     0.831286050000     0.012935450000     0.078471   
H6       H      0.777100150000     0.623728200000     0.171455785000    -0.057437   
H7       H      0.832938350000     0.910972415000     0.015427810000     0.226196   
H8       H      0.843005330000     0.902736400000     0.147599385000     0.384459   
H9       H      0.767033100000     0.631964300000     0.039284175000    -0.131817   
H10      H      0.632438185000     0.972047300000     0.461994700000    -0.034648   
H11      H      0.590207755000     0.547894620000     0.232634915000     0.061229   
H12      H      0.976267370000     0.567600150000     0.222662510000     0.101895   
H13      H      0.515977430000     0.979576200000     0.455132425000     0.052559   
H14      H      0.886338350000     0.957345750000     0.215499385000     0.033295   
H15      H      0.712188585000     0.534922715000     0.461328030000     0.071536   
H16      H      0.914028200000     0.988491350000     0.477459800000     0.109812   
H17      H      0.868409485000     0.966807485000     0.341431950000     0.009746   
H18      H      0.675103440000     0.993060620000     0.284828400000    -0.021776   
H19      H      0.715324880000     0.507403570000     0.393589320000     0.069694   
H20      H      0.689062550000     0.515890260000     0.214660225000     0.479518   
H21      H      0.916635800000     0.959973250000     0.409397750000     0.001167   
H22      H      0.720653130000     0.956355000000     0.347304750000     0.023795   
H23      H      0.870072930000     0.931185575000     0.283253750000     0.069098   
C24      C      0.773683370000     0.648013550000     0.069505090000    -0.080892   
C25      C      0.836355150000     0.886687070000     0.117378495000     0.350156   
C26      C      0.784550950000     0.691932560000     0.070872875000    -0.051407   
C27      C      0.825487435000     0.842768050000     0.116010695000    -0.154269   
C28      C      0.792776465000     0.711638350000     0.107997680000     0.07874    
C29      C      0.817262085000     0.823062300000     0.078885920000     0.164715   
C30      C      0.790132730000     0.687393560000     0.143724265000    -0.065744   
C31      C      0.819905730000     0.847307100000     0.043159305000    -0.120627   
C32      C      0.779269300000     0.643468550000     0.142359660000    -0.028909   
C33      C      0.830769180000     0.891232135000     0.044523900000     0.223171   
C34      C      0.690482440000     0.500964770000     0.103075950000    -1.26642    
C35      C      0.917025750000     0.531264755000     0.083579920000     0.005547   
C36      C      0.976116850000     0.550210190000     0.160154950000     0.324901   
C37      C      0.609490840000     0.528612975000     0.171458275000     0.008495   
C38      C      0.632384090000     0.989228150000     0.024566340000    -0.28868    
C39      C      0.996758050000     0.999142950000     0.016268620000     0.201881   
C40      C      0.504831685000     0.554804415000     0.197379725000    -0.055842   
C41      C      0.569958250000     0.543779010000     0.203024385000    -0.055395   
C42      C      0.603148220000     0.981792300000     0.488063050000     0.07456    
C43      C      0.536692625000     0.986271200000     0.484100600000    -0.253477   
C44      C      0.582449650000     0.522999050000     0.131954165000    -0.16058    
C45      C      0.514080470000     0.532569830000     0.126566260000    -0.133413   
C46      C      0.524552250000     0.508330915000     0.054890945000    -0.214283   
C47      C      0.593580730000     0.502209500000     0.059388255000     0.046973   
C48      C      0.621000670000     0.508806585000     0.098043040000    -0.11525    
C49      C      0.986371550000     0.523826815000     0.088476545000     1.50832    
C50      C      0.812783100000     0.513724640000     0.474509900000     0.147177   
C51      C      0.799950200000     0.503556340000     0.168596370000     1.10893    
C52      C      0.729428025000     0.998721870000     0.229874210000    -0.108946   
C53      C      0.808454500000     0.525881395000     0.016710760000     0.011504   
C54      C      0.790139675000     0.991116150000     0.210673735000    -0.320151   
C55      C      0.839999675000     0.965793075000     0.230196370000     0.160317   
C56      C      0.758490850000     0.501882050000     0.411871550000     0.127531   
C57      C      0.830610000000     0.950414630000     0.268909750000    -0.139265   
C58      C      0.772299400000     0.961804750000     0.289543700000     0.065038   
C59      C      0.720773550000     0.984496830000     0.269386500000    -0.063066   
C60      C      0.757107400000     0.518628325000     0.450359850000    -0.03876    
C61      C      0.870417650000     0.992767485000     0.459325200000    -0.319123   
C62      C      0.871746100000     0.975968250000     0.420788525000     0.098346   
C63      C      0.815566750000     0.979698400000     0.397149700000    -0.13573    
C64      C      0.768532850000     0.957467650000     0.333408030000    -0.096384   
C65      C      0.820660150000     0.965341900000     0.355463775000     6.4e-05    
Br66     Br     0.698637450000     0.517422230000     0.189030425000    -0.833183   
Br67     Br     0.725757510000     0.980623125000     0.019890865000     0.155484   
Br68     Br     0.906090350000     0.501056895000     0.000764105000     0.691039   
Br69     Br     0.885722800000     0.572379150000     0.161429350000    -0.452077   
N70      N      0.771044670000     0.623767905000     0.105262235000    -0.570571   
N71      N      0.838993800000     0.910932720000     0.081621335000     0.924      
N72      N      0.803862750000     0.756538600000     0.109392920000    -0.079318   
N73      N      0.806175700000     0.778162000000     0.077490660000    -0.091071   
O74      O      0.713754865000     0.963319150000     0.113542170000     1.15023    
O75      O      0.880383580000     0.500107145000     0.088924110000    -31.2435    
O76      O      0.893929600000     0.568790480000     0.072885560000    -1.07813    
O77      O      0.727300865000     0.532002480000     0.097503625000     17.5751    
O78      O      0.749926950000     0.514460135000     0.146215690000    -0.867847   
O79      O      0.857540580000     0.995640785000     0.153490990000     1.65759    
O80      O      0.751905620000     0.537984905000     0.031740130000    -0.969055   
O81      O      0.859519335000     0.519165540000     0.039015410000     0.88097    
Zn0      Zn     0.876157520000     0.514166675000     0.587255800000     22.2196    
Zn1      Zn     0.731097500000     0.520533260000     0.599785930000    -11.2385    
H2       H      0.823366580000     0.823040150000     0.645102680000     0.095809   
H3       H      0.786671900000     0.711660460000     0.541780920000     0.051462   
H4       H      0.796793100000     0.703414575000     0.673948125000     0.055534   
H5       H      0.813245325000     0.831286050000     0.512935450000     0.078471   
H6       H      0.777100150000     0.623728200000     0.671455785000    -0.057437   
H7       H      0.832938350000     0.910972415000     0.515427810000     0.226196   
H8       H      0.843005330000     0.902736400000     0.647599385000     0.384459   
H9       H      0.767033100000     0.631964300000     0.539284175000    -0.131817   
H10      H      0.632438185000     0.972047300000     0.961994700000    -0.034648   
H11      H      0.590207755000     0.547894620000     0.732634915000     0.061229   
H12      H      0.976267370000     0.567600150000     0.722662510000     0.101895   
H13      H      0.515977430000     0.979576200000     0.955132425000     0.052559   
H14      H      0.886338350000     0.957345750000     0.715499385000     0.033295   
H15      H      0.712188585000     0.534922715000     0.961328030000     0.071536   
H16      H      0.914028200000     0.988491350000     0.977459800000     0.109812   
H17      H      0.868409485000     0.966807485000     0.841431950000     0.009746   
H18      H      0.675103440000     0.993060620000     0.784828400000    -0.021776   
H19      H      0.715324880000     0.507403570000     0.893589320000     0.069694   
H20      H      0.689062550000     0.515890260000     0.714660225000     0.479518   
H21      H      0.916635800000     0.959973250000     0.909397750000     0.001167   
H22      H      0.720653130000     0.956355000000     0.847304750000     0.023795   
H23      H      0.870072930000     0.931185575000     0.783253750000     0.069098   
C24      C      0.773683370000     0.648013550000     0.569505090000    -0.080892   
C25      C      0.836355150000     0.886687070000     0.617378495000     0.350156   
C26      C      0.784550950000     0.691932560000     0.570872875000    -0.051407   
C27      C      0.825487435000     0.842768050000     0.616010695000    -0.154269   
C28      C      0.792776465000     0.711638350000     0.607997680000     0.07874    
C29      C      0.817262085000     0.823062300000     0.578885920000     0.164715   
C30      C      0.790132730000     0.687393560000     0.643724265000    -0.065744   
C31      C      0.819905730000     0.847307100000     0.543159305000    -0.120627   
C32      C      0.779269300000     0.643468550000     0.642359660000    -0.028909   
C33      C      0.830769180000     0.891232135000     0.544523900000     0.223171   
C34      C      0.690482440000     0.500964770000     0.603075950000    -1.26642    
C35      C      0.917025750000     0.531264755000     0.583579920000     0.005547   
C36      C      0.976116850000     0.550210190000     0.660154950000     0.324901   
C37      C      0.609490840000     0.528612975000     0.671458275000     0.008495   
C38      C      0.632384090000     0.989228150000     0.524566340000    -0.28868    
C39      C      0.996758050000     0.999142950000     0.516268620000     0.201881   
C40      C      0.504831685000     0.554804415000     0.697379725000    -0.055842   
C41      C      0.569958250000     0.543779010000     0.703024385000    -0.055395   
C42      C      0.603148220000     0.981792300000     0.988063050000     0.07456    
C43      C      0.536692625000     0.986271200000     0.984100600000    -0.253477   
C44      C      0.582449650000     0.522999050000     0.631954165000    -0.16058    
C45      C      0.514080470000     0.532569830000     0.626566260000    -0.133413   
C46      C      0.524552250000     0.508330915000     0.554890945000    -0.214283   
C47      C      0.593580730000     0.502209500000     0.559388255000     0.046973   
C48      C      0.621000670000     0.508806585000     0.598043040000    -0.11525    
C49      C      0.986371550000     0.523826815000     0.588476545000     1.50832    
C50      C      0.812783100000     0.513724640000     0.974509900000     0.147177   
C51      C      0.799950200000     0.503556340000     0.668596370000     1.10893    
C52      C      0.729428025000     0.998721870000     0.729874210000    -0.108946   
C53      C      0.808454500000     0.525881395000     0.516710760000     0.011504   
C54      C      0.790139675000     0.991116150000     0.710673735000    -0.320151   
C55      C      0.839999675000     0.965793075000     0.730196370000     0.160317   
C56      C      0.758490850000     0.501882050000     0.911871550000     0.127531   
C57      C      0.830610000000     0.950414630000     0.768909750000    -0.139265   
C58      C      0.772299400000     0.961804750000     0.789543700000     0.065038   
C59      C      0.720773550000     0.984496830000     0.769386500000    -0.063066   
C60      C      0.757107400000     0.518628325000     0.950359850000    -0.03876    
C61      C      0.870417650000     0.992767485000     0.959325200000    -0.319123   
C62      C      0.871746100000     0.975968250000     0.920788525000     0.098346   
C63      C      0.815566750000     0.979698400000     0.897149700000    -0.13573    
C64      C      0.768532850000     0.957467650000     0.833408030000    -0.096384   
C65      C      0.820660150000     0.965341900000     0.855463775000     6.4e-05    
Br66     Br     0.698637450000     0.517422230000     0.689030425000    -0.833183   
Br67     Br     0.725757510000     0.980623125000     0.519890865000     0.155484   
Br68     Br     0.906090350000     0.501056895000     0.500764105000     0.691039   
Br69     Br     0.885722800000     0.572379150000     0.661429350000    -0.452077   
N70      N      0.771044670000     0.623767905000     0.605262235000    -0.570571   
N71      N      0.838993800000     0.910932720000     0.581621335000     0.924      
N72      N      0.803862750000     0.756538600000     0.609392920000    -0.079318   
N73      N      0.806175700000     0.778162000000     0.577490660000    -0.091071   
O74      O      0.713754865000     0.963319150000     0.613542170000     1.15023    
O75      O      0.880383580000     0.500107145000     0.588924110000    -31.2435    
O76      O      0.893929600000     0.568790480000     0.572885560000    -1.07813    
O77      O      0.727300865000     0.532002480000     0.597503625000     17.5751    
O78      O      0.749926950000     0.514460135000     0.646215690000    -0.867847   
O79      O      0.857540580000     0.995640785000     0.653490990000     1.65759    
O80      O      0.751905620000     0.537984905000     0.531740130000    -0.969055   
O81      O      0.859519335000     0.519165540000     0.539015410000     0.88097    


