data_sample_1_relaxed_charged

_audit_creation_method RASPA-1.0
_audit_creation_date 2026-2-4
_audit_author_name ''

_cell_length_a    27.4189
_cell_length_b    36.9273
_cell_length_c    49.2068
_cell_angle_alpha 91.951
_cell_angle_beta  92.7862
_cell_angle_gamma 90.364
_cell_volume      49732.9

_symmetry_cell_setting          triclinic
_symmetry_space_group_name_Hall 'P 1'
_symmetry_space_group_name_H-M  'P 1'
_symmetry_Int_Tables_number     1

_symmetry_equiv_pos_as_xyz 'x,y,z'

loop_
_atom_site_label
_atom_site_type_symbol
_atom_site_fract_x
_atom_site_fract_y
_atom_site_fract_z
_atom_site_charge
Zn0      Zn     0.134321780000     0.085275920000     0.163212240000     1.61648    
Zn1      Zn     0.073110223333     0.036131535000     0.196521450000     1.23312    
Cu2      Cu     0.161319783333     0.209583100000     0.023929905000     86.6219    
Cu3      Cu     0.060632606667     0.207324625000     0.019156590000     2.62446    
Cu4      Cu     0.159008313333     0.372567350000     0.353000375000     268.169    
Cu5      Cu     0.059502890000     0.367586730000     0.347184800000    -2.23077    
H6       H      0.279921766667     0.172182290000     0.443581750000    -0.870692   
H7       H      0.317904453333     0.362625450000     0.382477015000    -3.65138    
H8       H      0.057756696667     0.326338680000     0.012607335000    -0.413114   
H9       H      0.141921360000     0.370614170000     0.492767780000    -0.046142   
H10      H      0.313383966667     0.255992550000     0.390318650000     0.053457   
H11      H      0.312859953333     0.267582475000     0.354795550000     0.350159   
H12      H      0.007350863333     0.226036580000     0.365729330000     0.219907   
H13      H      0.070943723333     0.272213100000     0.357917800000     7.4584     
H14      H      0.071265460000     0.260380150000     0.392995300000    -0.124264   
H15      H      0.022072463333     0.316258670000     0.403611125000     0.472245   
H16      H      0.018176120000     0.327201275000     0.369961750000     0.393419   
H17      H      0.265128910000     0.258309000000     0.443111300000     0.949423   
H18      H      0.268269833333     0.210745035000     0.450931450000     0.445026   
H19      H      0.254306953333     0.223977060000     0.416497530000     1.47592    
H20      H      0.179216433333     0.203608530000     0.438139470000    -0.761785   
H21      H      0.176393066667     0.250226450000     0.429460615000    -0.644198   
H22      H      0.198019366667     0.269888950000     0.477730650000    -3.97614    
H23      H      0.210124900000     0.225677090000     0.486648830000    -40.0403    
H24      H      0.319758016667     0.366821080000     0.320798665000    -6.49212    
H25      H      0.029014230000     0.393293830000     0.302593600000     9.38741    
H26      H      0.011768826667     0.348118275000     0.290283650000    -1.12629    
H27      H      0.093341073333     0.344989270000     0.312886250000     0.128867   
H28      H      0.051069280000     0.322277050000     0.331415650000     0.120218   
H29      H      0.042307596667     0.381739170000     0.361716450000    -2.25354    
H30      H      0.087015000000     0.401826920000     0.344901850000    -3.06993    
H31      H      0.232994100000     0.142231050000     0.015996815000     0.959394   
H32      H      0.179145266667     0.115438230000     0.021386445000    -0.595424   
H33      H      0.213027120000     0.107300365000     0.491301500000    -1.43481    
H34      H      0.138807233333     0.142055110000     0.478844435000    -8.29063    
H35      H      0.192492433333     0.168154120000     0.475303770000    -17.8808    
H36      H      0.179046610000     0.201255470000     0.020360350000    -59.7131    
H37      H      0.133954966667     0.171471925000     0.026871680000    -48.4511    
H38      H      0.210955380000     0.408463420000     0.045761105000    -0.059299   
H39      H      0.245365000000     0.490957350000     0.176082450000     1.03532    
H40      H      0.324349366667     0.485644130000     0.014733140000     0.037932   
H41      H      0.283240233333     0.454649100000     0.496417730000     0.053457   
H42      H      0.267028986667     0.001211820000     0.499895800000     0.045672   
H43      H      0.220291233333     0.469257830000     0.032276570000     0.029638   
H44      H      0.266582000000     0.495042500000     0.051305275000     0.011088   
H45      H      0.321394166667     0.458323550000     0.167120665000    -2.16969    
H46      H      0.014129640000     0.423964000000     0.098631730000    -3.11845    
H47      H      0.043475110000     0.444453450000     0.129246710000     2.06497    
H48      H      0.066236100000     0.402685285000     0.115079125000    -5.54135    
H49      H      0.018483720000     0.390711070000     0.155508350000    -23.605     
H50      H      0.324249743333     0.370095500000     0.125057830000    -2.29134    
H51      H      0.278504666667     0.478139700000     0.136465965000     0.215718   
H52      H      0.320386946667     0.485157500000     0.165855050000     0.482424   
H53      H      0.315073733333     0.018990695000     0.140350625000     0.026621   
H54      H      0.057608340000     0.483011800000     0.135812200000    -0.995266   
H55      H      0.016659273333     0.477452950000     0.106331200000    -0.802203   
H56      H      0.319817683333     0.417947680000     0.124698200000    -6.65864    
H57      H      0.025097583333     0.426556250000     0.153996950000    -1.10608    
H58      H      0.219489733333     0.472797575000     0.028576605000     0.009015   
H59      H      0.193603433333     0.016256390000     0.037171595000    -0.037688   
H60      H      0.241780766667     0.498089375000     0.058858925000     0.096223   
H61      H      0.137166193333     0.467425250000     0.049076650000     0.063443   
H62      H      0.160558273333     0.491493950000     0.079118340000     0.083896   
H63      H      0.220995586667     0.445377500000     0.087980420000     0.165295   
H64      H      0.206714750000     0.419779420000     0.058514140000     0.051871   
H65      H      0.018599813333     0.460304900000     0.058497360000    -0.092381   
H66      H      0.239950020000     0.380764500000     0.115273880000    -1.85027    
H67      H      0.327659300000     0.353260575000     0.087330930000     0.301968   
H68      H      0.167186616667     0.470631720000     0.153456760000     2.13578    
H69      H      0.242927366667     0.354118800000     0.067928440000    -0.332121   
H70      H      0.261234366667     0.206429350000     0.077893225000     1.84163    
H71      H      0.063314253333     0.075360360000     0.187547625000    -0.165138   
H72      H      0.124861366667     0.103915550000     0.160070000000    -1.01966    
H73      H      0.210166653333     0.178786800000     0.111565850000    -1.00775    
H74      H      0.180786633333     0.108949200000     0.085466815000     0.101779   
H75      H      0.182696423333     0.045942635000     0.085915780000     0.03156    
H76      H      0.122338423333     0.044184280000     0.098387650000     0.046008   
H77      H      0.173496246667     0.059661470000     0.120848545000     0.057728   
H78      H      0.072373886667     0.167242840000     0.137414115000     0.165741   
H79      H      0.066089033333     0.229821325000     0.134381560000    -0.091354   
H80      H      0.093104113333     0.228485270000     0.101879560000    -0.568014   
H81      H      0.130670616667     0.221361580000     0.132716375000    -0.14841    
H82      H      0.217824666667     0.206345600000     0.247845365000     0.040387   
H83      H      0.288911766667     0.182966550000     0.274397880000     0.010106   
H84      H      0.277821166667     0.154755430000     0.318681600000     0.041477   
H85      H      0.194892000000     0.148582900000     0.335976550000     0.055155   
H86      H      0.123183240000     0.170513230000     0.309381200000     0.038396   
H87      H      0.328382766667     0.228083120000     0.284987720000    -0.080389   
H88      H      0.256725886667     0.250117900000     0.258180320000     0.054372   
H89      H      0.266569633333     0.275947750000     0.213025435000     0.026157   
H90      H      0.015694636667     0.281808375000     0.195141820000    -0.01461    
H91      H      0.088227733333     0.262305320000     0.222222910000     0.067816   
H92      H      0.106357300000     0.478402585000     0.340745150000    -2.82176    
H93      H      0.053100963333     0.464035950000     0.299720300000     0.694058   
H94      H      0.299727676667     0.446941585000     0.304282150000     0.231018   
H95      H      0.265690600000     0.445240300000     0.350009400000     5.0033     
H96      H      0.318124800000     0.460458600000     0.391197620000     0.998543   
H97      H      0.124693026667     0.403670600000     0.457233500000     0.21835    
H98      H      0.181119043333     0.357042150000     0.474907370000    -0.403292   
H99      H      0.268677333333     0.358939100000     0.464600350000     0.15689    
H100     H      0.300286566667     0.408274050000     0.437187670000     0.004654   
H101     H      0.244600033333     0.455652120000     0.419967920000     0.835932   
H102     H      0.090048780000     0.096887575000     0.030171575000    -0.341659   
H103     H      0.030649750000     0.108916870000     0.065590200000    -0.054085   
H104     H      0.277703086667     0.122183450000     0.052425265000     0.100191   
H105     H      0.250314700000     0.122367350000     0.003647325000     1.00216    
H106     H      0.308962533333     0.109449595000     0.467987800000     0.165423   
H107     H      0.121179213333     0.172419400000     0.416198450000    -0.876338   
H108     H      0.177459533333     0.221316100000     0.404149150000     0.816528   
H109     H      0.262956123333     0.222836360000     0.423022180000    -1.65973    
H110     H      0.292764400000     0.174675880000     0.453430600000     8.13013    
H111     H      0.237312713333     0.125065200000     0.465104750000    -1.64187    
H112     H      0.120419193333     0.475306350000     0.327726335000     2.74054    
H113     H      0.075456046667     0.322835685000     0.287660600000     0.223715   
H114     H      0.022683960000     0.275695235000     0.264444620000     0.039062   
H115     H      0.266474900000     0.284185530000     0.260000825000     0.191969   
H116     H      0.229808733333     0.340749700000     0.277934370000     1.19097    
H117     H      0.282031376667     0.388262550000     0.301007030000     2.70163    
H118     H      0.264966290000     0.043930410000     0.228173650000     0.075741   
H119     H      0.317249633333     0.091401460000     0.251248800000     0.012171   
H120     H      0.280659733333     0.147994460000     0.269182600000     0.029859   
H121     H      0.191127333333     0.156556070000     0.264735050000     0.05553    
H122     H      0.138296643333     0.109451530000     0.241522700000     0.025257   
H123     H      0.317069566667     0.443260550000     0.261128800000     0.096675   
H124     H      0.288701900000     0.433556850000     0.212932080000    -0.084276   
H125     H      0.332757766667     0.391300800000     0.182699300000    -2.33331    
H126     H      0.072119663333     0.358624370000     0.200729150000     0.072728   
H127     H      0.101079186667     0.368195115000     0.248824640000     0.440579   
H128     H      0.112509023333     0.064143775000     0.280332265000     0.097472   
H129     H      0.141269800000     0.073620320000     0.328472200000     0.009666   
H130     H      0.213821333333     0.040847780000     0.346574600000     0.350469   
H131     H      0.257961890000     0.498613330000     0.316369475000     0.916578   
H132     H      0.229802466667     0.488999900000     0.268133650000     0.974884   
H133     H      0.148497680000     0.453707850000     0.124718020000     1.25545    
H134     H      0.151680766667     0.485241770000     0.393485700000    -0.171261   
H135     H      0.093142260000     0.456981300000     0.201526060000    -0.084631   
C136     C      0.186232943333     0.361879530000     0.398713975000     8.98926    
C137     C      0.031799410000     0.230152200000     0.484650900000     1.11619    
C138     C      0.160713366667     0.348166650000     0.420937120000    -0.259032   
C139     C      0.050553400000     0.263060870000     0.475202450000    -3.57486    
C140     C      0.116579673333     0.328920450000     0.415575625000    -1.6848     
C141     C      0.100264916667     0.265306400000     0.469268250000     3.96116    
C142     C      0.092398673333     0.333747120000     0.390096650000     8.8973     
C143     C      0.131544133333     0.238118900000     0.479308250000    -10.9666    
C144     C      0.112365513333     0.358180000000     0.371116370000    -24.3117    
C145     C      0.112530826667     0.209969685000     0.495610650000     3.70259    
C146     C      0.043056330000     0.314411300000     0.384987150000    -2.7165     
C147     C      0.050083980000     0.274366700000     0.376692350000     1.51813    
C148     C      0.001093736667     0.254879050000     0.371577600000    -1.15272    
C149     C      0.185636766667     0.241548850000     0.473290680000    -5.51934    
C150     C      0.194613466667     0.230980115000     0.443413700000     4.26093    
C151     C      0.249034133333     0.231036560000     0.438251450000    -1.45904    
C152     C      0.075804780000     0.374744175000     0.350899750000     6.21042    
C153     C      0.061991896667     0.349708950000     0.325769215000    -1.01224    
C154     C      0.019714263333     0.365565420000     0.308816950000     2.07499    
C155     C      0.149037633333     0.185086265000     0.009901045000     201.4      
C156     C      0.169378200000     0.156072260000     0.490410950000     44.1929    
C157     C      0.200490000000     0.128576280000     0.005803110000    -9.74687    
C158     C      0.209143956667     0.361146180000     0.362190450000     125.901    
C159     C      0.011265753333     0.378622920000     0.338633550000     7.52782    
C160     C      0.256706656667     0.367330580000     0.353864200000    -44.7745    
C161     C      0.297065700000     0.372419850000     0.346995385000     25.3649    
C162     C      0.104448923333     0.394297630000     0.045405945000    -0.019799   
C163     C      0.111718753333     0.391045350000     0.156989215000     0.038071   
C164     C      0.279574613333     0.438030950000     0.049978735000    -0.555822   
C165     C      0.286005516667     0.416698950000     0.141054465000    -12.7403    
C166     C      0.328115046667     0.437074550000     0.060348390000     1.54801    
C167     C      0.109581466667     0.406221650000     0.130036235000     0.24112    
C168     C      0.241253600000     0.404565125000     0.128804160000     6.0783     
C169     C      0.012067733333     0.406869150000     0.074261195000     0.496878   
C170     C      0.198384343333     0.424319200000     0.132733600000    -2.74895    
C171     C      0.314667800000     0.376760700000     0.076648825000    -0.307439   
C172     C      0.199969550000     0.455163450000     0.150224270000     2.77558    
C173     C      0.266637583333     0.377307000000     0.065900440000     0.090058   
C174     C      0.244198680000     0.466880050000     0.162882390000    -3.64307    
C175     C      0.248768586667     0.408086950000     0.053161885000     0.09725    
C176     C      0.287153133333     0.448162900000     0.157940075000     6.47372    
C177     C      0.064062820000     0.412641375000     0.116737230000     3.70836    
C178     C      0.104981900000     0.405645450000     0.074319265000     0.455252   
C179     C      0.149337590000     0.417510000000     0.088351845000    -0.435349   
C180     C      0.260306200000     0.471575675000     0.036811380000     0.112139   
C181     C      0.285372713333     0.478646350000     0.010437410000    -0.036946   
C182     C      0.332443853333     0.396548780000     0.135837330000     41.0598    
C183     C      0.032674910000     0.418407900000     0.118621715000     12.4903    
C184     C      0.022150453333     0.430128870000     0.131818490000    -12.0791    
C185     C      0.021902656667     0.471246550000     0.128136070000     2.98678    
C186     C      0.314686400000     0.489406350000     0.143698575000    -0.508848   
C187     C      0.189731666667     0.437304650000     0.074013560000     0.010229   
C188     C      0.170538733333     0.472681135000     0.062187965000    -0.087595   
C189     C      0.152455166667     0.414647000000     0.116809600000     0.544759   
C190     C      0.208829920000     0.491009770000     0.045678610000    -0.024558   
C191     C      0.061038503333     0.407950280000     0.088363100000    -1.0514     
C192     C      0.224051613333     0.198499950000     0.072077425000    -8.85481    
C193     C      0.055107290000     0.079425695000     0.166157185000    -0.162072   
C194     C      0.195071716667     0.183018750000     0.091178560000     3.86331    
C195     C      0.089940600000     0.095530080000     0.150597400000     0.123389   
C196     C      0.146921366667     0.172798975000     0.083814720000    -3.19129    
C197     C      0.079405800000     0.100919635000     0.122925185000    -0.026961   
C198     C      0.128168273333     0.178779365000     0.057144360000     2.96172    
C199     C      0.033526493333     0.089861600000     0.111125290000     0.155715   
C200     C      0.158723900000     0.194870785000     0.038525120000     24.2381    
C201     C      0.332667846667     0.073841655000     0.127746910000    -0.140264   
C202     C      0.116516633333     0.155574560000     0.104259430000     0.952606   
C203     C      0.116618100000     0.118738225000     0.106558050000    -0.231616   
C204     C      0.157246033333     0.059698375000     0.099720950000    -0.100974   
C205     C      0.094322056667     0.216356800000     0.122242510000     0.112019   
C206     C      0.308948533333     0.028285540000     0.204491735000     0.065116   
C207     C      0.235454900000     0.094383390000     0.156267240000     0.411585   
C208     C      0.283153316667     0.051484950000     0.187565625000    -0.00061    
C209     C      0.261256866667     0.071177930000     0.173197790000    -0.150734   
C210     C      0.098238726667     0.171025290000     0.182072775000     0.257916   
C211     C      0.115354733333     0.263909070000     0.350007685000     1.72546    
C212     C      0.105621346667     0.252249630000     0.322413920000    -1.49174    
C213     C      0.107684353333     0.182301910000     0.209737570000    -0.074654   
C214     C      0.090267300000     0.229006710000     0.271427750000    -0.291506   
C215     C      0.122376850000     0.205086450000     0.260828200000     0.093985   
C216     C      0.115189760000     0.192087665000     0.233043360000     0.007816   
C217     C      0.097779543333     0.242187260000     0.299177885000     0.667758   
C218     C      0.165218483333     0.190910175000     0.276880325000    -0.0343     
C219     C      0.212318733333     0.193684430000     0.267009950000    -0.047292   
C220     C      0.252713920000     0.180588035000     0.282037885000    -0.033639   
C221     C      0.246486146667     0.164626730000     0.306991900000    -0.036156   
C222     C      0.199750920000     0.161189950000     0.316757680000    -0.024432   
C223     C      0.159216966667     0.173912915000     0.301693800000    -0.036201   
C224     C      0.047063286667     0.242788750000     0.255399450000     0.046484   
C225     C      0.000136473333     0.240015075000     0.265506685000     0.110918   
C226     C      0.292696753333     0.252174850000     0.250301000000    -0.156446   
C227     C      0.298252283333     0.266948400000     0.224872250000    -0.11525    
C228     C      0.011408860000     0.270319285000     0.214823000000    -0.014302   
C229     C      0.052397410000     0.258859900000     0.230147660000    -0.043317   
C230     C      0.016920566667     0.200535820000     0.026511140000     0.000652   
C231     C      0.257990300000     0.211342275000     0.019840255000    -12.2852    
C232     C      0.300330220000     0.206363950000     0.022916585000     5.08432    
C233     C      0.208066243333     0.217167150000     0.016243525000     26.0096    
C234     C      0.104318340000     0.159349485000     0.482658200000     46.8753    
C235     C      0.143141350000     0.082328675000     0.436666100000    -3.31246    
C236     C      0.079595180000     0.011832385000     0.406844600000     16.8364    
C237     C      0.145102466667     0.494557380000     0.438798850000     4.44516    
C238     C      0.116818476667     0.416156200000     0.389505180000    -0.898978   
C239     C      0.074433873333     0.062332115000     0.461942525000    -2.69133    
C240     C      0.141412000000     0.116593500000     0.449411550000     7.30308    
C241     C      0.081357673333     0.477961800000     0.393493850000    -32.6068    
C242     C      0.146836053333     0.460283130000     0.426068300000    -4.89494    
C243     C      0.072670300000     0.096189945000     0.475312770000     5.73071    
C244     C      0.106155106667     0.123623730000     0.468967100000    -15.3419    
C245     C      0.114982233333     0.451888325000     0.403186530000     11.7579    
C246     C      0.109647000000     0.055518475000     0.442860125000     2.9808     
C247     C      0.111482243333     0.020010875000     0.429259030000    -3.99365    
C248     C      0.175441343333     0.145098250000     0.441294850000    -3.89801    
C249     C      0.158709486667     0.172499580000     0.424156800000     2.93538    
C250     C      0.190384700000     0.200287475000     0.417431830000    -2.69483    
C251     C      0.238635966667     0.201113565000     0.428036185000     3.11364    
C252     C      0.255462166667     0.173910470000     0.445132165000    -4.75463    
C253     C      0.224077966667     0.145822465000     0.451639475000     4.82446    
C254     C      0.049173210000     0.470788900000     0.368850530000    -19.4162    
C255     C      0.068295776667     0.471592100000     0.342916100000     8.77134    
C256     C      0.038332110000     0.463287175000     0.319692900000    -3.59226    
C257     C      0.322732450000     0.453707575000     0.322261500000     2.71276    
C258     C      0.303521266667     0.452828400000     0.348042725000    -0.207852   
C259     C      0.333208866667     0.461557030000     0.371301450000    -2.43291    
C260     C      0.180793533333     0.433150680000     0.437577220000     1.89114    
C261     C      0.163059343333     0.405093075000     0.453034450000    -0.672218   
C262     C      0.194832500000     0.378581525000     0.462925800000     1.21667    
C263     C      0.244238633333     0.379683800000     0.457154275000    -0.044241   
C264     C      0.262075266667     0.407548300000     0.441747220000    -0.234749   
C265     C      0.230540300000     0.434373400000     0.432102700000    -0.45902    
C266     C      0.036892363333     0.101975750000     0.496581675000    -1.80767    
C267     C      0.052234193333     0.102021740000     0.024226310000    -1.57701    
C268     C      0.018780156667     0.109008775000     0.044292865000     0.635204   
C269     C      0.303426733333     0.116427550000     0.036868690000    -0.039788   
C270     C      0.287971813333     0.116453355000     0.009367345000    -0.747818   
C271     C      0.321172333333     0.109030835000     0.489240700000     0.662751   
C272     C      0.061801810000     0.412492900000     0.287190400000     3.61654    
C273     C      0.124297733333     0.488451600000     0.234553175000     0.265478   
C274     C      0.089299800000     0.443854950000     0.294656575000     0.994255   
C275     C      0.112455426667     0.481986100000     0.207167240000     0.076918   
C276     C      0.101149166667     0.450300650000     0.322049050000     0.922903   
C277     C      0.126203090000     0.005722700000     0.187002400000    -1.77938    
C278     C      0.087429933333     0.426543450000     0.342176615000     5.76569    
C279     C      0.015501820000     0.357771400000     0.298020850000     0.841227   
C280     C      0.036246283333     0.326455770000     0.286446750000     0.49193    
C281     C      0.006531023333     0.299867450000     0.273072570000     0.015731   
C282     C      0.289409433333     0.304722050000     0.270455630000    -0.508435   
C283     C      0.268712420000     0.336495520000     0.280734050000     1.27596    
C284     C      0.298308866667     0.363137100000     0.294114830000    -1.28225    
C285     C      0.198200980000     0.074473320000     0.231160450000    -0.02001    
C286     C      0.248716653333     0.069068670000     0.235066115000    -0.049896   
C287     C      0.278350066667     0.095690070000     0.248448415000    -0.01663    
C288     C      0.257694033333     0.127477585000     0.258727700000    -0.035341   
C289     C      0.207249733333     0.132371070000     0.256111115000    -0.024596   
C290     C      0.177503190000     0.105802415000     0.242736850000    -0.045775   
C291     C      0.044183830000     0.406196685000     0.258400680000    -1.18761    
C292     C      0.003122893333     0.424684880000     0.248083370000    -0.417808   
C293     C      0.320363633333     0.419251470000     0.220842100000     0.592281   
C294     C      0.011865810000     0.395418850000     0.203796750000     1.50147    
C295     C      0.052842443333     0.376988300000     0.213964015000    -0.85254    
C296     C      0.069076770000     0.382371550000     0.241184235000     0.813077   
C297     C      0.169397553333     0.026117145000     0.270804300000     0.587513   
C298     C      0.144467680000     0.049939035000     0.288004850000    -0.273838   
C299     C      0.160588253333     0.055270135000     0.315248070000     0.204943   
C300     C      0.201485333333     0.036782800000     0.325456950000     0.022681   
C301     C      0.226365090000     0.012963355000     0.308428050000     0.689646   
C302     C      0.210393746667     0.007584035000     0.281162920000    -0.869979   
C303     C      0.166139206667     0.043757615000     0.221502170000     0.020992   
C304     C      0.047523940000     0.388507600000     0.307681800000    -14.3958    
C305     C      0.151821860000     0.019800365000     0.242007630000    -0.271328   
S306     S      0.306711200000     0.216545835000     0.470138450000     3.10729    
S307     S      0.251543900000     0.362835500000     0.404177800000    -4.84362    
S308     S      0.014832773333     0.302887230000     0.478465950000     8.84305    
S309     S      0.178019833333     0.362757100000     0.455040125000     0.050881   
S310     S      0.111446786667     0.488457350000     0.153206020000     2.17637    
S311     S      0.102416723333     0.443774225000     0.375910135000    -1.00093    
N312     N      0.161174616667     0.370036700000     0.374160650000    -26.0573    
N313     N      0.062188206667     0.205984665000     0.498158425000     1.9714     
N314     N      0.094253133333     0.304957120000     0.434414100000     0.24776    
N315     N      0.121071426667     0.293540050000     0.453526250000    -0.823809   
N316     N      0.205922823333     0.204084000000     0.046348530000     16.8532    
N317     N      0.011010806667     0.068768130000     0.154650400000     0.08211    
N318     N      0.286262453333     0.061876170000     0.116311370000     0.007361   
N319     N      0.139492023333     0.203038650000     0.011913040000    -177.444    
N320     N      0.149473846667     0.096560770000     0.091428375000    -0.078326   
N321     N      0.084244433333     0.177800850000     0.119761735000    -0.379861   
N322     N      0.079186186667     0.167855010000     0.048704880000     0.77124    
N323     N      0.021757756667     0.094546395000     0.082665650000    -0.007862   
N324     N      0.153362940000     0.037083985000     0.193977015000    -0.017603   
N325     N      0.060311810000     0.395163925000     0.335206900000     1.27694    
N326     N      0.112264543333     0.460678550000     0.252987450000     0.258693   
N327     N      0.101330160000     0.471636150000     0.276228000000     0.134367   
O328     O      0.270313900000     0.212549580000     0.491701425000    -3.81482    
O329     O      0.287528633333     0.243713930000     0.450301470000    -1.1237     
O330     O      0.312547366667     0.177077530000     0.452537715000    -7.70272    
O331     O      0.267216166667     0.396881730000     0.419858050000     1.38787    
O332     O      0.266209000000     0.331009300000     0.420894325000     1.8909     
O333     O      0.283218900000     0.360005470000     0.376053200000     7.93372    
O334     O      0.330831446667     0.315432875000     0.451002775000    -6.16877    
O335     O      0.304383966667     0.295745430000     0.494792800000    -2.03775    
O336     O      0.048262720000     0.336017670000     0.494595530000    -1.03231    
O337     O      0.214502366667     0.337115170000     0.467340750000    -0.617669   
O338     O      0.199811000000     0.400201950000     0.455551030000    -0.937453   
O339     O      0.128851940000     0.364508330000     0.474040950000    -0.285341   
O340     O      0.203595800000     0.336807280000     0.380348325000    -37.6797    
O341     O      0.016769010000     0.402809085000     0.320345225000    -2.44612    
O342     O      0.046701273333     0.359259550000     0.349079430000    -1.32204    
O343     O      0.173663556667     0.380356820000     0.351614100000    -346.065    
O344     O      0.144822906667     0.391285030000     0.033767720000    -0.375151   
O345     O      0.072293306667     0.379722265000     0.166769775000     1.38296    
O346     O      0.064073243333     0.387457700000     0.031912875000    -0.238782   
O347     O      0.153043000000     0.383549570000     0.168624600000    -0.269943   
O348     O      0.282862833333     0.031168905000     0.102592355000    -0.198325   
O349     O      0.250504016667     0.084770560000     0.114450950000    -0.089483   
O350     O      0.100978453333     0.223226025000     0.009082470000     19.361     
O351     O      0.156976566667     0.187217310000     0.490549900000     65.6328    
O352     O      0.070623006667     0.149924530000     0.025724990000     3.71113    
O353     O      0.042710050000     0.177029950000     0.063349030000    -0.439875   
O354     O      0.313418846667     0.108240330000     0.074713090000    -0.209897   
O355     O      0.052072213333     0.084191075000     0.064476130000    -0.193066   
O356     O      0.285056053333     0.005887960000     0.218022020000    -0.377796   
O357     O      0.259347366667     0.116780975000     0.142736940000    -0.210577   
O358     O      0.188901033333     0.092366750000     0.154927760000    -0.504567   
O359     O      0.022169033333     0.030302180000     0.205831230000    -0.493905   
O360     O      0.131304710000     0.152653010000     0.170052590000    -0.181258   
O361     O      0.082368576667     0.282401500000     0.362014600000    -10.2517    
O362     O      0.057002066667     0.179195540000     0.169942200000    -0.227444   
O363     O      0.156671216667     0.255859000000     0.362125000000    -0.4944     
O364     O      0.045568466667     0.218187870000     0.011289665000    -6.36919    
O365     O      0.031310120000     0.177889260000     0.044825030000    -0.831551   
O366     O      0.193684776667     0.239810650000     0.497917350000     60.3733    
O367     O      0.179421233333     0.199497300000     0.031464985000    -62.916     
O368     O      0.144594976667     0.175510375000     0.490561300000    -112.12     
O369     O      0.076541623333     0.399993200000     0.381605350000     1.55149    
O370     O      0.158670723333     0.401663800000     0.385666250000     20.6793    
O371     O      0.062465880000     0.173839750000     0.486500400000    -13.1326    
O372     O      0.069218933333     0.462306400000     0.153624800000    -0.373177   
O373     O      0.097569346667     0.016861615000     0.133326950000    -0.448934   
O374     O      0.159896990000     0.465396350000     0.142328665000    -4.2129     
O375     O      0.059301053333     0.464367900000     0.385904430000     30.4748    
O376     O      0.116740766667     0.415396870000     0.395722030000    -5.42361    
O377     O      0.149720786667     0.472977150000     0.375242850000     4.15575    
F378     F      0.176707090000     0.075249970000     0.417773950000     0.199233   
F379     F      0.047585866667     0.037170930000     0.397690500000    -3.27043    
F380     F      0.175374150000     0.002934550000     0.460861750000    -1.96342    
F381     F      0.042601383333     0.035696550000     0.467916130000     0.164949   
Zn0      Zn     0.134321780000     0.085275920000     0.663212240000     1.61648    
Zn1      Zn     0.073110223333     0.036131535000     0.696521450000     1.23312    
Cu2      Cu     0.161319783333     0.209583100000     0.523929905000     86.6219    
Cu3      Cu     0.060632606667     0.207324625000     0.519156590000     2.62446    
Cu4      Cu     0.159008313333     0.372567350000     0.853000375000     268.169    
Cu5      Cu     0.059502890000     0.367586730000     0.847184800000    -2.23077    
H6       H      0.279921766667     0.172182290000     0.943581750000    -0.870692   
H7       H      0.317904453333     0.362625450000     0.882477015000    -3.65138    
H8       H      0.057756696667     0.326338680000     0.512607335000    -0.413114   
H9       H      0.141921360000     0.370614170000     0.992767780000    -0.046142   
H10      H      0.313383966667     0.255992550000     0.890318650000     0.053457   
H11      H      0.312859953333     0.267582475000     0.854795550000     0.350159   
H12      H      0.007350863333     0.226036580000     0.865729330000     0.219907   
H13      H      0.070943723333     0.272213100000     0.857917800000     7.4584     
H14      H      0.071265460000     0.260380150000     0.892995300000    -0.124264   
H15      H      0.022072463333     0.316258670000     0.903611125000     0.472245   
H16      H      0.018176120000     0.327201275000     0.869961750000     0.393419   
H17      H      0.265128910000     0.258309000000     0.943111300000     0.949423   
H18      H      0.268269833333     0.210745035000     0.950931450000     0.445026   
H19      H      0.254306953333     0.223977060000     0.916497530000     1.47592    
H20      H      0.179216433333     0.203608530000     0.938139470000    -0.761785   
H21      H      0.176393066667     0.250226450000     0.929460615000    -0.644198   
H22      H      0.198019366667     0.269888950000     0.977730650000    -3.97614    
H23      H      0.210124900000     0.225677090000     0.986648830000    -40.0403    
H24      H      0.319758016667     0.366821080000     0.820798665000    -6.49212    
H25      H      0.029014230000     0.393293830000     0.802593600000     9.38741    
H26      H      0.011768826667     0.348118275000     0.790283650000    -1.12629    
H27      H      0.093341073333     0.344989270000     0.812886250000     0.128867   
H28      H      0.051069280000     0.322277050000     0.831415650000     0.120218   
H29      H      0.042307596667     0.381739170000     0.861716450000    -2.25354    
H30      H      0.087015000000     0.401826920000     0.844901850000    -3.06993    
H31      H      0.232994100000     0.142231050000     0.515996815000     0.959394   
H32      H      0.179145266667     0.115438230000     0.521386445000    -0.595424   
H33      H      0.213027120000     0.107300365000     0.991301500000    -1.43481    
H34      H      0.138807233333     0.142055110000     0.978844435000    -8.29063    
H35      H      0.192492433333     0.168154120000     0.975303770000    -17.8808    
H36      H      0.179046610000     0.201255470000     0.520360350000    -59.7131    
H37      H      0.133954966667     0.171471925000     0.526871680000    -48.4511    
H38      H      0.210955380000     0.408463420000     0.545761105000    -0.059299   
H39      H      0.245365000000     0.490957350000     0.676082450000     1.03532    
H40      H      0.324349366667     0.485644130000     0.514733140000     0.037932   
H41      H      0.283240233333     0.454649100000     0.996417730000     0.053457   
H42      H      0.267028986667     0.001211820000     0.999895800000     0.045672   
H43      H      0.220291233333     0.469257830000     0.532276570000     0.029638   
H44      H      0.266582000000     0.495042500000     0.551305275000     0.011088   
H45      H      0.321394166667     0.458323550000     0.667120665000    -2.16969    
H46      H      0.014129640000     0.423964000000     0.598631730000    -3.11845    
H47      H      0.043475110000     0.444453450000     0.629246710000     2.06497    
H48      H      0.066236100000     0.402685285000     0.615079125000    -5.54135    
H49      H      0.018483720000     0.390711070000     0.655508350000    -23.605     
H50      H      0.324249743333     0.370095500000     0.625057830000    -2.29134    
H51      H      0.278504666667     0.478139700000     0.636465965000     0.215718   
H52      H      0.320386946667     0.485157500000     0.665855050000     0.482424   
H53      H      0.315073733333     0.018990695000     0.640350625000     0.026621   
H54      H      0.057608340000     0.483011800000     0.635812200000    -0.995266   
H55      H      0.016659273333     0.477452950000     0.606331200000    -0.802203   
H56      H      0.319817683333     0.417947680000     0.624698200000    -6.65864    
H57      H      0.025097583333     0.426556250000     0.653996950000    -1.10608    
H58      H      0.219489733333     0.472797575000     0.528576605000     0.009015   
H59      H      0.193603433333     0.016256390000     0.537171595000    -0.037688   
H60      H      0.241780766667     0.498089375000     0.558858925000     0.096223   
H61      H      0.137166193333     0.467425250000     0.549076650000     0.063443   
H62      H      0.160558273333     0.491493950000     0.579118340000     0.083896   
H63      H      0.220995586667     0.445377500000     0.587980420000     0.165295   
H64      H      0.206714750000     0.419779420000     0.558514140000     0.051871   
H65      H      0.018599813333     0.460304900000     0.558497360000    -0.092381   
H66      H      0.239950020000     0.380764500000     0.615273880000    -1.85027    
H67      H      0.327659300000     0.353260575000     0.587330930000     0.301968   
H68      H      0.167186616667     0.470631720000     0.653456760000     2.13578    
H69      H      0.242927366667     0.354118800000     0.567928440000    -0.332121   
H70      H      0.261234366667     0.206429350000     0.577893225000     1.84163    
H71      H      0.063314253333     0.075360360000     0.687547625000    -0.165138   
H72      H      0.124861366667     0.103915550000     0.660070000000    -1.01966    
H73      H      0.210166653333     0.178786800000     0.611565850000    -1.00775    
H74      H      0.180786633333     0.108949200000     0.585466815000     0.101779   
H75      H      0.182696423333     0.045942635000     0.585915780000     0.03156    
H76      H      0.122338423333     0.044184280000     0.598387650000     0.046008   
H77      H      0.173496246667     0.059661470000     0.620848545000     0.057728   
H78      H      0.072373886667     0.167242840000     0.637414115000     0.165741   
H79      H      0.066089033333     0.229821325000     0.634381560000    -0.091354   
H80      H      0.093104113333     0.228485270000     0.601879560000    -0.568014   
H81      H      0.130670616667     0.221361580000     0.632716375000    -0.14841    
H82      H      0.217824666667     0.206345600000     0.747845365000     0.040387   
H83      H      0.288911766667     0.182966550000     0.774397880000     0.010106   
H84      H      0.277821166667     0.154755430000     0.818681600000     0.041477   
H85      H      0.194892000000     0.148582900000     0.835976550000     0.055155   
H86      H      0.123183240000     0.170513230000     0.809381200000     0.038396   
H87      H      0.328382766667     0.228083120000     0.784987720000    -0.080389   
H88      H      0.256725886667     0.250117900000     0.758180320000     0.054372   
H89      H      0.266569633333     0.275947750000     0.713025435000     0.026157   
H90      H      0.015694636667     0.281808375000     0.695141820000    -0.01461    
H91      H      0.088227733333     0.262305320000     0.722222910000     0.067816   
H92      H      0.106357300000     0.478402585000     0.840745150000    -2.82176    
H93      H      0.053100963333     0.464035950000     0.799720300000     0.694058   
H94      H      0.299727676667     0.446941585000     0.804282150000     0.231018   
H95      H      0.265690600000     0.445240300000     0.850009400000     5.0033     
H96      H      0.318124800000     0.460458600000     0.891197620000     0.998543   
H97      H      0.124693026667     0.403670600000     0.957233500000     0.21835    
H98      H      0.181119043333     0.357042150000     0.974907370000    -0.403292   
H99      H      0.268677333333     0.358939100000     0.964600350000     0.15689    
H100     H      0.300286566667     0.408274050000     0.937187670000     0.004654   
H101     H      0.244600033333     0.455652120000     0.919967920000     0.835932   
H102     H      0.090048780000     0.096887575000     0.530171575000    -0.341659   
H103     H      0.030649750000     0.108916870000     0.565590200000    -0.054085   
H104     H      0.277703086667     0.122183450000     0.552425265000     0.100191   
H105     H      0.250314700000     0.122367350000     0.503647325000     1.00216    
H106     H      0.308962533333     0.109449595000     0.967987800000     0.165423   
H107     H      0.121179213333     0.172419400000     0.916198450000    -0.876338   
H108     H      0.177459533333     0.221316100000     0.904149150000     0.816528   
H109     H      0.262956123333     0.222836360000     0.923022180000    -1.65973    
H110     H      0.292764400000     0.174675880000     0.953430600000     8.13013    
H111     H      0.237312713333     0.125065200000     0.965104750000    -1.64187    
H112     H      0.120419193333     0.475306350000     0.827726335000     2.74054    
H113     H      0.075456046667     0.322835685000     0.787660600000     0.223715   
H114     H      0.022683960000     0.275695235000     0.764444620000     0.039062   
H115     H      0.266474900000     0.284185530000     0.760000825000     0.191969   
H116     H      0.229808733333     0.340749700000     0.777934370000     1.19097    
H117     H      0.282031376667     0.388262550000     0.801007030000     2.70163    
H118     H      0.264966290000     0.043930410000     0.728173650000     0.075741   
H119     H      0.317249633333     0.091401460000     0.751248800000     0.012171   
H120     H      0.280659733333     0.147994460000     0.769182600000     0.029859   
H121     H      0.191127333333     0.156556070000     0.764735050000     0.05553    
H122     H      0.138296643333     0.109451530000     0.741522700000     0.025257   
H123     H      0.317069566667     0.443260550000     0.761128800000     0.096675   
H124     H      0.288701900000     0.433556850000     0.712932080000    -0.084276   
H125     H      0.332757766667     0.391300800000     0.682699300000    -2.33331    
H126     H      0.072119663333     0.358624370000     0.700729150000     0.072728   
H127     H      0.101079186667     0.368195115000     0.748824640000     0.440579   
H128     H      0.112509023333     0.064143775000     0.780332265000     0.097472   
H129     H      0.141269800000     0.073620320000     0.828472200000     0.009666   
H130     H      0.213821333333     0.040847780000     0.846574600000     0.350469   
H131     H      0.257961890000     0.498613330000     0.816369475000     0.916578   
H132     H      0.229802466667     0.488999900000     0.768133650000     0.974884   
H133     H      0.148497680000     0.453707850000     0.624718020000     1.25545    
H134     H      0.151680766667     0.485241770000     0.893485700000    -0.171261   
H135     H      0.093142260000     0.456981300000     0.701526060000    -0.084631   
C136     C      0.186232943333     0.361879530000     0.898713975000     8.98926    
C137     C      0.031799410000     0.230152200000     0.984650900000     1.11619    
C138     C      0.160713366667     0.348166650000     0.920937120000    -0.259032   
C139     C      0.050553400000     0.263060870000     0.975202450000    -3.57486    
C140     C      0.116579673333     0.328920450000     0.915575625000    -1.6848     
C141     C      0.100264916667     0.265306400000     0.969268250000     3.96116    
C142     C      0.092398673333     0.333747120000     0.890096650000     8.8973     
C143     C      0.131544133333     0.238118900000     0.979308250000    -10.9666    
C144     C      0.112365513333     0.358180000000     0.871116370000    -24.3117    
C145     C      0.112530826667     0.209969685000     0.995610650000     3.70259    
C146     C      0.043056330000     0.314411300000     0.884987150000    -2.7165     
C147     C      0.050083980000     0.274366700000     0.876692350000     1.51813    
C148     C      0.001093736667     0.254879050000     0.871577600000    -1.15272    
C149     C      0.185636766667     0.241548850000     0.973290680000    -5.51934    
C150     C      0.194613466667     0.230980115000     0.943413700000     4.26093    
C151     C      0.249034133333     0.231036560000     0.938251450000    -1.45904    
C152     C      0.075804780000     0.374744175000     0.850899750000     6.21042    
C153     C      0.061991896667     0.349708950000     0.825769215000    -1.01224    
C154     C      0.019714263333     0.365565420000     0.808816950000     2.07499    
C155     C      0.149037633333     0.185086265000     0.509901045000     201.4      
C156     C      0.169378200000     0.156072260000     0.990410950000     44.1929    
C157     C      0.200490000000     0.128576280000     0.505803110000    -9.74687    
C158     C      0.209143956667     0.361146180000     0.862190450000     125.901    
C159     C      0.011265753333     0.378622920000     0.838633550000     7.52782    
C160     C      0.256706656667     0.367330580000     0.853864200000    -44.7745    
C161     C      0.297065700000     0.372419850000     0.846995385000     25.3649    
C162     C      0.104448923333     0.394297630000     0.545405945000    -0.019799   
C163     C      0.111718753333     0.391045350000     0.656989215000     0.038071   
C164     C      0.279574613333     0.438030950000     0.549978735000    -0.555822   
C165     C      0.286005516667     0.416698950000     0.641054465000    -12.7403    
C166     C      0.328115046667     0.437074550000     0.560348390000     1.54801    
C167     C      0.109581466667     0.406221650000     0.630036235000     0.24112    
C168     C      0.241253600000     0.404565125000     0.628804160000     6.0783     
C169     C      0.012067733333     0.406869150000     0.574261195000     0.496878   
C170     C      0.198384343333     0.424319200000     0.632733600000    -2.74895    
C171     C      0.314667800000     0.376760700000     0.576648825000    -0.307439   
C172     C      0.199969550000     0.455163450000     0.650224270000     2.77558    
C173     C      0.266637583333     0.377307000000     0.565900440000     0.090058   
C174     C      0.244198680000     0.466880050000     0.662882390000    -3.64307    
C175     C      0.248768586667     0.408086950000     0.553161885000     0.09725    
C176     C      0.287153133333     0.448162900000     0.657940075000     6.47372    
C177     C      0.064062820000     0.412641375000     0.616737230000     3.70836    
C178     C      0.104981900000     0.405645450000     0.574319265000     0.455252   
C179     C      0.149337590000     0.417510000000     0.588351845000    -0.435349   
C180     C      0.260306200000     0.471575675000     0.536811380000     0.112139   
C181     C      0.285372713333     0.478646350000     0.510437410000    -0.036946   
C182     C      0.332443853333     0.396548780000     0.635837330000     41.0598    
C183     C      0.032674910000     0.418407900000     0.618621715000     12.4903    
C184     C      0.022150453333     0.430128870000     0.631818490000    -12.0791    
C185     C      0.021902656667     0.471246550000     0.628136070000     2.98678    
C186     C      0.314686400000     0.489406350000     0.643698575000    -0.508848   
C187     C      0.189731666667     0.437304650000     0.574013560000     0.010229   
C188     C      0.170538733333     0.472681135000     0.562187965000    -0.087595   
C189     C      0.152455166667     0.414647000000     0.616809600000     0.544759   
C190     C      0.208829920000     0.491009770000     0.545678610000    -0.024558   
C191     C      0.061038503333     0.407950280000     0.588363100000    -1.0514     
C192     C      0.224051613333     0.198499950000     0.572077425000    -8.85481    
C193     C      0.055107290000     0.079425695000     0.666157185000    -0.162072   
C194     C      0.195071716667     0.183018750000     0.591178560000     3.86331    
C195     C      0.089940600000     0.095530080000     0.650597400000     0.123389   
C196     C      0.146921366667     0.172798975000     0.583814720000    -3.19129    
C197     C      0.079405800000     0.100919635000     0.622925185000    -0.026961   
C198     C      0.128168273333     0.178779365000     0.557144360000     2.96172    
C199     C      0.033526493333     0.089861600000     0.611125290000     0.155715   
C200     C      0.158723900000     0.194870785000     0.538525120000     24.2381    
C201     C      0.332667846667     0.073841655000     0.627746910000    -0.140264   
C202     C      0.116516633333     0.155574560000     0.604259430000     0.952606   
C203     C      0.116618100000     0.118738225000     0.606558050000    -0.231616   
C204     C      0.157246033333     0.059698375000     0.599720950000    -0.100974   
C205     C      0.094322056667     0.216356800000     0.622242510000     0.112019   
C206     C      0.308948533333     0.028285540000     0.704491735000     0.065116   
C207     C      0.235454900000     0.094383390000     0.656267240000     0.411585   
C208     C      0.283153316667     0.051484950000     0.687565625000    -0.00061    
C209     C      0.261256866667     0.071177930000     0.673197790000    -0.150734   
C210     C      0.098238726667     0.171025290000     0.682072775000     0.257916   
C211     C      0.115354733333     0.263909070000     0.850007685000     1.72546    
C212     C      0.105621346667     0.252249630000     0.822413920000    -1.49174    
C213     C      0.107684353333     0.182301910000     0.709737570000    -0.074654   
C214     C      0.090267300000     0.229006710000     0.771427750000    -0.291506   
C215     C      0.122376850000     0.205086450000     0.760828200000     0.093985   
C216     C      0.115189760000     0.192087665000     0.733043360000     0.007816   
C217     C      0.097779543333     0.242187260000     0.799177885000     0.667758   
C218     C      0.165218483333     0.190910175000     0.776880325000    -0.0343     
C219     C      0.212318733333     0.193684430000     0.767009950000    -0.047292   
C220     C      0.252713920000     0.180588035000     0.782037885000    -0.033639   
C221     C      0.246486146667     0.164626730000     0.806991900000    -0.036156   
C222     C      0.199750920000     0.161189950000     0.816757680000    -0.024432   
C223     C      0.159216966667     0.173912915000     0.801693800000    -0.036201   
C224     C      0.047063286667     0.242788750000     0.755399450000     0.046484   
C225     C      0.000136473333     0.240015075000     0.765506685000     0.110918   
C226     C      0.292696753333     0.252174850000     0.750301000000    -0.156446   
C227     C      0.298252283333     0.266948400000     0.724872250000    -0.11525    
C228     C      0.011408860000     0.270319285000     0.714823000000    -0.014302   
C229     C      0.052397410000     0.258859900000     0.730147660000    -0.043317   
C230     C      0.016920566667     0.200535820000     0.526511140000     0.000652   
C231     C      0.257990300000     0.211342275000     0.519840255000    -12.2852    
C232     C      0.300330220000     0.206363950000     0.522916585000     5.08432    
C233     C      0.208066243333     0.217167150000     0.516243525000     26.0096    
C234     C      0.104318340000     0.159349485000     0.982658200000     46.8753    
C235     C      0.143141350000     0.082328675000     0.936666100000    -3.31246    
C236     C      0.079595180000     0.011832385000     0.906844600000     16.8364    
C237     C      0.145102466667     0.494557380000     0.938798850000     4.44516    
C238     C      0.116818476667     0.416156200000     0.889505180000    -0.898978   
C239     C      0.074433873333     0.062332115000     0.961942525000    -2.69133    
C240     C      0.141412000000     0.116593500000     0.949411550000     7.30308    
C241     C      0.081357673333     0.477961800000     0.893493850000    -32.6068    
C242     C      0.146836053333     0.460283130000     0.926068300000    -4.89494    
C243     C      0.072670300000     0.096189945000     0.975312770000     5.73071    
C244     C      0.106155106667     0.123623730000     0.968967100000    -15.3419    
C245     C      0.114982233333     0.451888325000     0.903186530000     11.7579    
C246     C      0.109647000000     0.055518475000     0.942860125000     2.9808     
C247     C      0.111482243333     0.020010875000     0.929259030000    -3.99365    
C248     C      0.175441343333     0.145098250000     0.941294850000    -3.89801    
C249     C      0.158709486667     0.172499580000     0.924156800000     2.93538    
C250     C      0.190384700000     0.200287475000     0.917431830000    -2.69483    
C251     C      0.238635966667     0.201113565000     0.928036185000     3.11364    
C252     C      0.255462166667     0.173910470000     0.945132165000    -4.75463    
C253     C      0.224077966667     0.145822465000     0.951639475000     4.82446    
C254     C      0.049173210000     0.470788900000     0.868850530000    -19.4162    
C255     C      0.068295776667     0.471592100000     0.842916100000     8.77134    
C256     C      0.038332110000     0.463287175000     0.819692900000    -3.59226    
C257     C      0.322732450000     0.453707575000     0.822261500000     2.71276    
C258     C      0.303521266667     0.452828400000     0.848042725000    -0.207852   
C259     C      0.333208866667     0.461557030000     0.871301450000    -2.43291    
C260     C      0.180793533333     0.433150680000     0.937577220000     1.89114    
C261     C      0.163059343333     0.405093075000     0.953034450000    -0.672218   
C262     C      0.194832500000     0.378581525000     0.962925800000     1.21667    
C263     C      0.244238633333     0.379683800000     0.957154275000    -0.044241   
C264     C      0.262075266667     0.407548300000     0.941747220000    -0.234749   
C265     C      0.230540300000     0.434373400000     0.932102700000    -0.45902    
C266     C      0.036892363333     0.101975750000     0.996581675000    -1.80767    
C267     C      0.052234193333     0.102021740000     0.524226310000    -1.57701    
C268     C      0.018780156667     0.109008775000     0.544292865000     0.635204   
C269     C      0.303426733333     0.116427550000     0.536868690000    -0.039788   
C270     C      0.287971813333     0.116453355000     0.509367345000    -0.747818   
C271     C      0.321172333333     0.109030835000     0.989240700000     0.662751   
C272     C      0.061801810000     0.412492900000     0.787190400000     3.61654    
C273     C      0.124297733333     0.488451600000     0.734553175000     0.265478   
C274     C      0.089299800000     0.443854950000     0.794656575000     0.994255   
C275     C      0.112455426667     0.481986100000     0.707167240000     0.076918   
C276     C      0.101149166667     0.450300650000     0.822049050000     0.922903   
C277     C      0.126203090000     0.005722700000     0.687002400000    -1.77938    
C278     C      0.087429933333     0.426543450000     0.842176615000     5.76569    
C279     C      0.015501820000     0.357771400000     0.798020850000     0.841227   
C280     C      0.036246283333     0.326455770000     0.786446750000     0.49193    
C281     C      0.006531023333     0.299867450000     0.773072570000     0.015731   
C282     C      0.289409433333     0.304722050000     0.770455630000    -0.508435   
C283     C      0.268712420000     0.336495520000     0.780734050000     1.27596    
C284     C      0.298308866667     0.363137100000     0.794114830000    -1.28225    
C285     C      0.198200980000     0.074473320000     0.731160450000    -0.02001    
C286     C      0.248716653333     0.069068670000     0.735066115000    -0.049896   
C287     C      0.278350066667     0.095690070000     0.748448415000    -0.01663    
C288     C      0.257694033333     0.127477585000     0.758727700000    -0.035341   
C289     C      0.207249733333     0.132371070000     0.756111115000    -0.024596   
C290     C      0.177503190000     0.105802415000     0.742736850000    -0.045775   
C291     C      0.044183830000     0.406196685000     0.758400680000    -1.18761    
C292     C      0.003122893333     0.424684880000     0.748083370000    -0.417808   
C293     C      0.320363633333     0.419251470000     0.720842100000     0.592281   
C294     C      0.011865810000     0.395418850000     0.703796750000     1.50147    
C295     C      0.052842443333     0.376988300000     0.713964015000    -0.85254    
C296     C      0.069076770000     0.382371550000     0.741184235000     0.813077   
C297     C      0.169397553333     0.026117145000     0.770804300000     0.587513   
C298     C      0.144467680000     0.049939035000     0.788004850000    -0.273838   
C299     C      0.160588253333     0.055270135000     0.815248070000     0.204943   
C300     C      0.201485333333     0.036782800000     0.825456950000     0.022681   
C301     C      0.226365090000     0.012963355000     0.808428050000     0.689646   
C302     C      0.210393746667     0.007584035000     0.781162920000    -0.869979   
C303     C      0.166139206667     0.043757615000     0.721502170000     0.020992   
C304     C      0.047523940000     0.388507600000     0.807681800000    -14.3958    
C305     C      0.151821860000     0.019800365000     0.742007630000    -0.271328   
S306     S      0.306711200000     0.216545835000     0.970138450000     3.10729    
S307     S      0.251543900000     0.362835500000     0.904177800000    -4.84362    
S308     S      0.014832773333     0.302887230000     0.978465950000     8.84305    
S309     S      0.178019833333     0.362757100000     0.955040125000     0.050881   
S310     S      0.111446786667     0.488457350000     0.653206020000     2.17637    
S311     S      0.102416723333     0.443774225000     0.875910135000    -1.00093    
N312     N      0.161174616667     0.370036700000     0.874160650000    -26.0573    
N313     N      0.062188206667     0.205984665000     0.998158425000     1.9714     
N314     N      0.094253133333     0.304957120000     0.934414100000     0.24776    
N315     N      0.121071426667     0.293540050000     0.953526250000    -0.823809   
N316     N      0.205922823333     0.204084000000     0.546348530000     16.8532    
N317     N      0.011010806667     0.068768130000     0.654650400000     0.08211    
N318     N      0.286262453333     0.061876170000     0.616311370000     0.007361   
N319     N      0.139492023333     0.203038650000     0.511913040000    -177.444    
N320     N      0.149473846667     0.096560770000     0.591428375000    -0.078326   
N321     N      0.084244433333     0.177800850000     0.619761735000    -0.379861   
N322     N      0.079186186667     0.167855010000     0.548704880000     0.77124    
N323     N      0.021757756667     0.094546395000     0.582665650000    -0.007862   
N324     N      0.153362940000     0.037083985000     0.693977015000    -0.017603   
N325     N      0.060311810000     0.395163925000     0.835206900000     1.27694    
N326     N      0.112264543333     0.460678550000     0.752987450000     0.258693   
N327     N      0.101330160000     0.471636150000     0.776228000000     0.134367   
O328     O      0.270313900000     0.212549580000     0.991701425000    -3.81482    
O329     O      0.287528633333     0.243713930000     0.950301470000    -1.1237     
O330     O      0.312547366667     0.177077530000     0.952537715000    -7.70272    
O331     O      0.267216166667     0.396881730000     0.919858050000     1.38787    
O332     O      0.266209000000     0.331009300000     0.920894325000     1.8909     
O333     O      0.283218900000     0.360005470000     0.876053200000     7.93372    
O334     O      0.330831446667     0.315432875000     0.951002775000    -6.16877    
O335     O      0.304383966667     0.295745430000     0.994792800000    -2.03775    
O336     O      0.048262720000     0.336017670000     0.994595530000    -1.03231    
O337     O      0.214502366667     0.337115170000     0.967340750000    -0.617669   
O338     O      0.199811000000     0.400201950000     0.955551030000    -0.937453   
O339     O      0.128851940000     0.364508330000     0.974040950000    -0.285341   
O340     O      0.203595800000     0.336807280000     0.880348325000    -37.6797    
O341     O      0.016769010000     0.402809085000     0.820345225000    -2.44612    
O342     O      0.046701273333     0.359259550000     0.849079430000    -1.32204    
O343     O      0.173663556667     0.380356820000     0.851614100000    -346.065    
O344     O      0.144822906667     0.391285030000     0.533767720000    -0.375151   
O345     O      0.072293306667     0.379722265000     0.666769775000     1.38296    
O346     O      0.064073243333     0.387457700000     0.531912875000    -0.238782   
O347     O      0.153043000000     0.383549570000     0.668624600000    -0.269943   
O348     O      0.282862833333     0.031168905000     0.602592355000    -0.198325   
O349     O      0.250504016667     0.084770560000     0.614450950000    -0.089483   
O350     O      0.100978453333     0.223226025000     0.509082470000     19.361     
O351     O      0.156976566667     0.187217310000     0.990549900000     65.6328    
O352     O      0.070623006667     0.149924530000     0.525724990000     3.71113    
O353     O      0.042710050000     0.177029950000     0.563349030000    -0.439875   
O354     O      0.313418846667     0.108240330000     0.574713090000    -0.209897   
O355     O      0.052072213333     0.084191075000     0.564476130000    -0.193066   
O356     O      0.285056053333     0.005887960000     0.718022020000    -0.377796   
O357     O      0.259347366667     0.116780975000     0.642736940000    -0.210577   
O358     O      0.188901033333     0.092366750000     0.654927760000    -0.504567   
O359     O      0.022169033333     0.030302180000     0.705831230000    -0.493905   
O360     O      0.131304710000     0.152653010000     0.670052590000    -0.181258   
O361     O      0.082368576667     0.282401500000     0.862014600000    -10.2517    
O362     O      0.057002066667     0.179195540000     0.669942200000    -0.227444   
O363     O      0.156671216667     0.255859000000     0.862125000000    -0.4944     
O364     O      0.045568466667     0.218187870000     0.511289665000    -6.36919    
O365     O      0.031310120000     0.177889260000     0.544825030000    -0.831551   
O366     O      0.193684776667     0.239810650000     0.997917350000     60.3733    
O367     O      0.179421233333     0.199497300000     0.531464985000    -62.916     
O368     O      0.144594976667     0.175510375000     0.990561300000    -112.12     
O369     O      0.076541623333     0.399993200000     0.881605350000     1.55149    
O370     O      0.158670723333     0.401663800000     0.885666250000     20.6793    
O371     O      0.062465880000     0.173839750000     0.986500400000    -13.1326    
O372     O      0.069218933333     0.462306400000     0.653624800000    -0.373177   
O373     O      0.097569346667     0.016861615000     0.633326950000    -0.448934   
O374     O      0.159896990000     0.465396350000     0.642328665000    -4.2129     
O375     O      0.059301053333     0.464367900000     0.885904430000     30.4748    
O376     O      0.116740766667     0.415396870000     0.895722030000    -5.42361    
O377     O      0.149720786667     0.472977150000     0.875242850000     4.15575    
F378     F      0.176707090000     0.075249970000     0.917773950000     0.199233   
F379     F      0.047585866667     0.037170930000     0.897690500000    -3.27043    
F380     F      0.175374150000     0.002934550000     0.960861750000    -1.96342    
F381     F      0.042601383333     0.035696550000     0.967916130000     0.164949   
Zn0      Zn     0.134321780000     0.585275920000     0.163212240000     1.61648    
Zn1      Zn     0.073110223333     0.536131535000     0.196521450000     1.23312    
Cu2      Cu     0.161319783333     0.709583100000     0.023929905000     86.6219    
Cu3      Cu     0.060632606667     0.707324625000     0.019156590000     2.62446    
Cu4      Cu     0.159008313333     0.872567350000     0.353000375000     268.169    
Cu5      Cu     0.059502890000     0.867586730000     0.347184800000    -2.23077    
H6       H      0.279921766667     0.672182290000     0.443581750000    -0.870692   
H7       H      0.317904453333     0.862625450000     0.382477015000    -3.65138    
H8       H      0.057756696667     0.826338680000     0.012607335000    -0.413114   
H9       H      0.141921360000     0.870614170000     0.492767780000    -0.046142   
H10      H      0.313383966667     0.755992550000     0.390318650000     0.053457   
H11      H      0.312859953333     0.767582475000     0.354795550000     0.350159   
H12      H      0.007350863333     0.726036580000     0.365729330000     0.219907   
H13      H      0.070943723333     0.772213100000     0.357917800000     7.4584     
H14      H      0.071265460000     0.760380150000     0.392995300000    -0.124264   
H15      H      0.022072463333     0.816258670000     0.403611125000     0.472245   
H16      H      0.018176120000     0.827201275000     0.369961750000     0.393419   
H17      H      0.265128910000     0.758309000000     0.443111300000     0.949423   
H18      H      0.268269833333     0.710745035000     0.450931450000     0.445026   
H19      H      0.254306953333     0.723977060000     0.416497530000     1.47592    
H20      H      0.179216433333     0.703608530000     0.438139470000    -0.761785   
H21      H      0.176393066667     0.750226450000     0.429460615000    -0.644198   
H22      H      0.198019366667     0.769888950000     0.477730650000    -3.97614    
H23      H      0.210124900000     0.725677090000     0.486648830000    -40.0403    
H24      H      0.319758016667     0.866821080000     0.320798665000    -6.49212    
H25      H      0.029014230000     0.893293830000     0.302593600000     9.38741    
H26      H      0.011768826667     0.848118275000     0.290283650000    -1.12629    
H27      H      0.093341073333     0.844989270000     0.312886250000     0.128867   
H28      H      0.051069280000     0.822277050000     0.331415650000     0.120218   
H29      H      0.042307596667     0.881739170000     0.361716450000    -2.25354    
H30      H      0.087015000000     0.901826920000     0.344901850000    -3.06993    
H31      H      0.232994100000     0.642231050000     0.015996815000     0.959394   
H32      H      0.179145266667     0.615438230000     0.021386445000    -0.595424   
H33      H      0.213027120000     0.607300365000     0.491301500000    -1.43481    
H34      H      0.138807233333     0.642055110000     0.478844435000    -8.29063    
H35      H      0.192492433333     0.668154120000     0.475303770000    -17.8808    
H36      H      0.179046610000     0.701255470000     0.020360350000    -59.7131    
H37      H      0.133954966667     0.671471925000     0.026871680000    -48.4511    
H38      H      0.210955380000     0.908463420000     0.045761105000    -0.059299   
H39      H      0.245365000000     0.990957350000     0.176082450000     1.03532    
H40      H      0.324349366667     0.985644130000     0.014733140000     0.037932   
H41      H      0.283240233333     0.954649100000     0.496417730000     0.053457   
H42      H      0.267028986667     0.501211820000     0.499895800000     0.045672   
H43      H      0.220291233333     0.969257830000     0.032276570000     0.029638   
H44      H      0.266582000000     0.995042500000     0.051305275000     0.011088   
H45      H      0.321394166667     0.958323550000     0.167120665000    -2.16969    
H46      H      0.014129640000     0.923964000000     0.098631730000    -3.11845    
H47      H      0.043475110000     0.944453450000     0.129246710000     2.06497    
H48      H      0.066236100000     0.902685285000     0.115079125000    -5.54135    
H49      H      0.018483720000     0.890711070000     0.155508350000    -23.605     
H50      H      0.324249743333     0.870095500000     0.125057830000    -2.29134    
H51      H      0.278504666667     0.978139700000     0.136465965000     0.215718   
H52      H      0.320386946667     0.985157500000     0.165855050000     0.482424   
H53      H      0.315073733333     0.518990695000     0.140350625000     0.026621   
H54      H      0.057608340000     0.983011800000     0.135812200000    -0.995266   
H55      H      0.016659273333     0.977452950000     0.106331200000    -0.802203   
H56      H      0.319817683333     0.917947680000     0.124698200000    -6.65864    
H57      H      0.025097583333     0.926556250000     0.153996950000    -1.10608    
H58      H      0.219489733333     0.972797575000     0.028576605000     0.009015   
H59      H      0.193603433333     0.516256390000     0.037171595000    -0.037688   
H60      H      0.241780766667     0.998089375000     0.058858925000     0.096223   
H61      H      0.137166193333     0.967425250000     0.049076650000     0.063443   
H62      H      0.160558273333     0.991493950000     0.079118340000     0.083896   
H63      H      0.220995586667     0.945377500000     0.087980420000     0.165295   
H64      H      0.206714750000     0.919779420000     0.058514140000     0.051871   
H65      H      0.018599813333     0.960304900000     0.058497360000    -0.092381   
H66      H      0.239950020000     0.880764500000     0.115273880000    -1.85027    
H67      H      0.327659300000     0.853260575000     0.087330930000     0.301968   
H68      H      0.167186616667     0.970631720000     0.153456760000     2.13578    
H69      H      0.242927366667     0.854118800000     0.067928440000    -0.332121   
H70      H      0.261234366667     0.706429350000     0.077893225000     1.84163    
H71      H      0.063314253333     0.575360360000     0.187547625000    -0.165138   
H72      H      0.124861366667     0.603915550000     0.160070000000    -1.01966    
H73      H      0.210166653333     0.678786800000     0.111565850000    -1.00775    
H74      H      0.180786633333     0.608949200000     0.085466815000     0.101779   
H75      H      0.182696423333     0.545942635000     0.085915780000     0.03156    
H76      H      0.122338423333     0.544184280000     0.098387650000     0.046008   
H77      H      0.173496246667     0.559661470000     0.120848545000     0.057728   
H78      H      0.072373886667     0.667242840000     0.137414115000     0.165741   
H79      H      0.066089033333     0.729821325000     0.134381560000    -0.091354   
H80      H      0.093104113333     0.728485270000     0.101879560000    -0.568014   
H81      H      0.130670616667     0.721361580000     0.132716375000    -0.14841    
H82      H      0.217824666667     0.706345600000     0.247845365000     0.040387   
H83      H      0.288911766667     0.682966550000     0.274397880000     0.010106   
H84      H      0.277821166667     0.654755430000     0.318681600000     0.041477   
H85      H      0.194892000000     0.648582900000     0.335976550000     0.055155   
H86      H      0.123183240000     0.670513230000     0.309381200000     0.038396   
H87      H      0.328382766667     0.728083120000     0.284987720000    -0.080389   
H88      H      0.256725886667     0.750117900000     0.258180320000     0.054372   
H89      H      0.266569633333     0.775947750000     0.213025435000     0.026157   
H90      H      0.015694636667     0.781808375000     0.195141820000    -0.01461    
H91      H      0.088227733333     0.762305320000     0.222222910000     0.067816   
H92      H      0.106357300000     0.978402585000     0.340745150000    -2.82176    
H93      H      0.053100963333     0.964035950000     0.299720300000     0.694058   
H94      H      0.299727676667     0.946941585000     0.304282150000     0.231018   
H95      H      0.265690600000     0.945240300000     0.350009400000     5.0033     
H96      H      0.318124800000     0.960458600000     0.391197620000     0.998543   
H97      H      0.124693026667     0.903670600000     0.457233500000     0.21835    
H98      H      0.181119043333     0.857042150000     0.474907370000    -0.403292   
H99      H      0.268677333333     0.858939100000     0.464600350000     0.15689    
H100     H      0.300286566667     0.908274050000     0.437187670000     0.004654   
H101     H      0.244600033333     0.955652120000     0.419967920000     0.835932   
H102     H      0.090048780000     0.596887575000     0.030171575000    -0.341659   
H103     H      0.030649750000     0.608916870000     0.065590200000    -0.054085   
H104     H      0.277703086667     0.622183450000     0.052425265000     0.100191   
H105     H      0.250314700000     0.622367350000     0.003647325000     1.00216    
H106     H      0.308962533333     0.609449595000     0.467987800000     0.165423   
H107     H      0.121179213333     0.672419400000     0.416198450000    -0.876338   
H108     H      0.177459533333     0.721316100000     0.404149150000     0.816528   
H109     H      0.262956123333     0.722836360000     0.423022180000    -1.65973    
H110     H      0.292764400000     0.674675880000     0.453430600000     8.13013    
H111     H      0.237312713333     0.625065200000     0.465104750000    -1.64187    
H112     H      0.120419193333     0.975306350000     0.327726335000     2.74054    
H113     H      0.075456046667     0.822835685000     0.287660600000     0.223715   
H114     H      0.022683960000     0.775695235000     0.264444620000     0.039062   
H115     H      0.266474900000     0.784185530000     0.260000825000     0.191969   
H116     H      0.229808733333     0.840749700000     0.277934370000     1.19097    
H117     H      0.282031376667     0.888262550000     0.301007030000     2.70163    
H118     H      0.264966290000     0.543930410000     0.228173650000     0.075741   
H119     H      0.317249633333     0.591401460000     0.251248800000     0.012171   
H120     H      0.280659733333     0.647994460000     0.269182600000     0.029859   
H121     H      0.191127333333     0.656556070000     0.264735050000     0.05553    
H122     H      0.138296643333     0.609451530000     0.241522700000     0.025257   
H123     H      0.317069566667     0.943260550000     0.261128800000     0.096675   
H124     H      0.288701900000     0.933556850000     0.212932080000    -0.084276   
H125     H      0.332757766667     0.891300800000     0.182699300000    -2.33331    
H126     H      0.072119663333     0.858624370000     0.200729150000     0.072728   
H127     H      0.101079186667     0.868195115000     0.248824640000     0.440579   
H128     H      0.112509023333     0.564143775000     0.280332265000     0.097472   
H129     H      0.141269800000     0.573620320000     0.328472200000     0.009666   
H130     H      0.213821333333     0.540847780000     0.346574600000     0.350469   
H131     H      0.257961890000     0.998613330000     0.316369475000     0.916578   
H132     H      0.229802466667     0.988999900000     0.268133650000     0.974884   
H133     H      0.148497680000     0.953707850000     0.124718020000     1.25545    
H134     H      0.151680766667     0.985241770000     0.393485700000    -0.171261   
H135     H      0.093142260000     0.956981300000     0.201526060000    -0.084631   
C136     C      0.186232943333     0.861879530000     0.398713975000     8.98926    
C137     C      0.031799410000     0.730152200000     0.484650900000     1.11619    
C138     C      0.160713366667     0.848166650000     0.420937120000    -0.259032   
C139     C      0.050553400000     0.763060870000     0.475202450000    -3.57486    
C140     C      0.116579673333     0.828920450000     0.415575625000    -1.6848     
C141     C      0.100264916667     0.765306400000     0.469268250000     3.96116    
C142     C      0.092398673333     0.833747120000     0.390096650000     8.8973     
C143     C      0.131544133333     0.738118900000     0.479308250000    -10.9666    
C144     C      0.112365513333     0.858180000000     0.371116370000    -24.3117    
C145     C      0.112530826667     0.709969685000     0.495610650000     3.70259    
C146     C      0.043056330000     0.814411300000     0.384987150000    -2.7165     
C147     C      0.050083980000     0.774366700000     0.376692350000     1.51813    
C148     C      0.001093736667     0.754879050000     0.371577600000    -1.15272    
C149     C      0.185636766667     0.741548850000     0.473290680000    -5.51934    
C150     C      0.194613466667     0.730980115000     0.443413700000     4.26093    
C151     C      0.249034133333     0.731036560000     0.438251450000    -1.45904    
C152     C      0.075804780000     0.874744175000     0.350899750000     6.21042    
C153     C      0.061991896667     0.849708950000     0.325769215000    -1.01224    
C154     C      0.019714263333     0.865565420000     0.308816950000     2.07499    
C155     C      0.149037633333     0.685086265000     0.009901045000     201.4      
C156     C      0.169378200000     0.656072260000     0.490410950000     44.1929    
C157     C      0.200490000000     0.628576280000     0.005803110000    -9.74687    
C158     C      0.209143956667     0.861146180000     0.362190450000     125.901    
C159     C      0.011265753333     0.878622920000     0.338633550000     7.52782    
C160     C      0.256706656667     0.867330580000     0.353864200000    -44.7745    
C161     C      0.297065700000     0.872419850000     0.346995385000     25.3649    
C162     C      0.104448923333     0.894297630000     0.045405945000    -0.019799   
C163     C      0.111718753333     0.891045350000     0.156989215000     0.038071   
C164     C      0.279574613333     0.938030950000     0.049978735000    -0.555822   
C165     C      0.286005516667     0.916698950000     0.141054465000    -12.7403    
C166     C      0.328115046667     0.937074550000     0.060348390000     1.54801    
C167     C      0.109581466667     0.906221650000     0.130036235000     0.24112    
C168     C      0.241253600000     0.904565125000     0.128804160000     6.0783     
C169     C      0.012067733333     0.906869150000     0.074261195000     0.496878   
C170     C      0.198384343333     0.924319200000     0.132733600000    -2.74895    
C171     C      0.314667800000     0.876760700000     0.076648825000    -0.307439   
C172     C      0.199969550000     0.955163450000     0.150224270000     2.77558    
C173     C      0.266637583333     0.877307000000     0.065900440000     0.090058   
C174     C      0.244198680000     0.966880050000     0.162882390000    -3.64307    
C175     C      0.248768586667     0.908086950000     0.053161885000     0.09725    
C176     C      0.287153133333     0.948162900000     0.157940075000     6.47372    
C177     C      0.064062820000     0.912641375000     0.116737230000     3.70836    
C178     C      0.104981900000     0.905645450000     0.074319265000     0.455252   
C179     C      0.149337590000     0.917510000000     0.088351845000    -0.435349   
C180     C      0.260306200000     0.971575675000     0.036811380000     0.112139   
C181     C      0.285372713333     0.978646350000     0.010437410000    -0.036946   
C182     C      0.332443853333     0.896548780000     0.135837330000     41.0598    
C183     C      0.032674910000     0.918407900000     0.118621715000     12.4903    
C184     C      0.022150453333     0.930128870000     0.131818490000    -12.0791    
C185     C      0.021902656667     0.971246550000     0.128136070000     2.98678    
C186     C      0.314686400000     0.989406350000     0.143698575000    -0.508848   
C187     C      0.189731666667     0.937304650000     0.074013560000     0.010229   
C188     C      0.170538733333     0.972681135000     0.062187965000    -0.087595   
C189     C      0.152455166667     0.914647000000     0.116809600000     0.544759   
C190     C      0.208829920000     0.991009770000     0.045678610000    -0.024558   
C191     C      0.061038503333     0.907950280000     0.088363100000    -1.0514     
C192     C      0.224051613333     0.698499950000     0.072077425000    -8.85481    
C193     C      0.055107290000     0.579425695000     0.166157185000    -0.162072   
C194     C      0.195071716667     0.683018750000     0.091178560000     3.86331    
C195     C      0.089940600000     0.595530080000     0.150597400000     0.123389   
C196     C      0.146921366667     0.672798975000     0.083814720000    -3.19129    
C197     C      0.079405800000     0.600919635000     0.122925185000    -0.026961   
C198     C      0.128168273333     0.678779365000     0.057144360000     2.96172    
C199     C      0.033526493333     0.589861600000     0.111125290000     0.155715   
C200     C      0.158723900000     0.694870785000     0.038525120000     24.2381    
C201     C      0.332667846667     0.573841655000     0.127746910000    -0.140264   
C202     C      0.116516633333     0.655574560000     0.104259430000     0.952606   
C203     C      0.116618100000     0.618738225000     0.106558050000    -0.231616   
C204     C      0.157246033333     0.559698375000     0.099720950000    -0.100974   
C205     C      0.094322056667     0.716356800000     0.122242510000     0.112019   
C206     C      0.308948533333     0.528285540000     0.204491735000     0.065116   
C207     C      0.235454900000     0.594383390000     0.156267240000     0.411585   
C208     C      0.283153316667     0.551484950000     0.187565625000    -0.00061    
C209     C      0.261256866667     0.571177930000     0.173197790000    -0.150734   
C210     C      0.098238726667     0.671025290000     0.182072775000     0.257916   
C211     C      0.115354733333     0.763909070000     0.350007685000     1.72546    
C212     C      0.105621346667     0.752249630000     0.322413920000    -1.49174    
C213     C      0.107684353333     0.682301910000     0.209737570000    -0.074654   
C214     C      0.090267300000     0.729006710000     0.271427750000    -0.291506   
C215     C      0.122376850000     0.705086450000     0.260828200000     0.093985   
C216     C      0.115189760000     0.692087665000     0.233043360000     0.007816   
C217     C      0.097779543333     0.742187260000     0.299177885000     0.667758   
C218     C      0.165218483333     0.690910175000     0.276880325000    -0.0343     
C219     C      0.212318733333     0.693684430000     0.267009950000    -0.047292   
C220     C      0.252713920000     0.680588035000     0.282037885000    -0.033639   
C221     C      0.246486146667     0.664626730000     0.306991900000    -0.036156   
C222     C      0.199750920000     0.661189950000     0.316757680000    -0.024432   
C223     C      0.159216966667     0.673912915000     0.301693800000    -0.036201   
C224     C      0.047063286667     0.742788750000     0.255399450000     0.046484   
C225     C      0.000136473333     0.740015075000     0.265506685000     0.110918   
C226     C      0.292696753333     0.752174850000     0.250301000000    -0.156446   
C227     C      0.298252283333     0.766948400000     0.224872250000    -0.11525    
C228     C      0.011408860000     0.770319285000     0.214823000000    -0.014302   
C229     C      0.052397410000     0.758859900000     0.230147660000    -0.043317   
C230     C      0.016920566667     0.700535820000     0.026511140000     0.000652   
C231     C      0.257990300000     0.711342275000     0.019840255000    -12.2852    
C232     C      0.300330220000     0.706363950000     0.022916585000     5.08432    
C233     C      0.208066243333     0.717167150000     0.016243525000     26.0096    
C234     C      0.104318340000     0.659349485000     0.482658200000     46.8753    
C235     C      0.143141350000     0.582328675000     0.436666100000    -3.31246    
C236     C      0.079595180000     0.511832385000     0.406844600000     16.8364    
C237     C      0.145102466667     0.994557380000     0.438798850000     4.44516    
C238     C      0.116818476667     0.916156200000     0.389505180000    -0.898978   
C239     C      0.074433873333     0.562332115000     0.461942525000    -2.69133    
C240     C      0.141412000000     0.616593500000     0.449411550000     7.30308    
C241     C      0.081357673333     0.977961800000     0.393493850000    -32.6068    
C242     C      0.146836053333     0.960283130000     0.426068300000    -4.89494    
C243     C      0.072670300000     0.596189945000     0.475312770000     5.73071    
C244     C      0.106155106667     0.623623730000     0.468967100000    -15.3419    
C245     C      0.114982233333     0.951888325000     0.403186530000     11.7579    
C246     C      0.109647000000     0.555518475000     0.442860125000     2.9808     
C247     C      0.111482243333     0.520010875000     0.429259030000    -3.99365    
C248     C      0.175441343333     0.645098250000     0.441294850000    -3.89801    
C249     C      0.158709486667     0.672499580000     0.424156800000     2.93538    
C250     C      0.190384700000     0.700287475000     0.417431830000    -2.69483    
C251     C      0.238635966667     0.701113565000     0.428036185000     3.11364    
C252     C      0.255462166667     0.673910470000     0.445132165000    -4.75463    
C253     C      0.224077966667     0.645822465000     0.451639475000     4.82446    
C254     C      0.049173210000     0.970788900000     0.368850530000    -19.4162    
C255     C      0.068295776667     0.971592100000     0.342916100000     8.77134    
C256     C      0.038332110000     0.963287175000     0.319692900000    -3.59226    
C257     C      0.322732450000     0.953707575000     0.322261500000     2.71276    
C258     C      0.303521266667     0.952828400000     0.348042725000    -0.207852   
C259     C      0.333208866667     0.961557030000     0.371301450000    -2.43291    
C260     C      0.180793533333     0.933150680000     0.437577220000     1.89114    
C261     C      0.163059343333     0.905093075000     0.453034450000    -0.672218   
C262     C      0.194832500000     0.878581525000     0.462925800000     1.21667    
C263     C      0.244238633333     0.879683800000     0.457154275000    -0.044241   
C264     C      0.262075266667     0.907548300000     0.441747220000    -0.234749   
C265     C      0.230540300000     0.934373400000     0.432102700000    -0.45902    
C266     C      0.036892363333     0.601975750000     0.496581675000    -1.80767    
C267     C      0.052234193333     0.602021740000     0.024226310000    -1.57701    
C268     C      0.018780156667     0.609008775000     0.044292865000     0.635204   
C269     C      0.303426733333     0.616427550000     0.036868690000    -0.039788   
C270     C      0.287971813333     0.616453355000     0.009367345000    -0.747818   
C271     C      0.321172333333     0.609030835000     0.489240700000     0.662751   
C272     C      0.061801810000     0.912492900000     0.287190400000     3.61654    
C273     C      0.124297733333     0.988451600000     0.234553175000     0.265478   
C274     C      0.089299800000     0.943854950000     0.294656575000     0.994255   
C275     C      0.112455426667     0.981986100000     0.207167240000     0.076918   
C276     C      0.101149166667     0.950300650000     0.322049050000     0.922903   
C277     C      0.126203090000     0.505722700000     0.187002400000    -1.77938    
C278     C      0.087429933333     0.926543450000     0.342176615000     5.76569    
C279     C      0.015501820000     0.857771400000     0.298020850000     0.841227   
C280     C      0.036246283333     0.826455770000     0.286446750000     0.49193    
C281     C      0.006531023333     0.799867450000     0.273072570000     0.015731   
C282     C      0.289409433333     0.804722050000     0.270455630000    -0.508435   
C283     C      0.268712420000     0.836495520000     0.280734050000     1.27596    
C284     C      0.298308866667     0.863137100000     0.294114830000    -1.28225    
C285     C      0.198200980000     0.574473320000     0.231160450000    -0.02001    
C286     C      0.248716653333     0.569068670000     0.235066115000    -0.049896   
C287     C      0.278350066667     0.595690070000     0.248448415000    -0.01663    
C288     C      0.257694033333     0.627477585000     0.258727700000    -0.035341   
C289     C      0.207249733333     0.632371070000     0.256111115000    -0.024596   
C290     C      0.177503190000     0.605802415000     0.242736850000    -0.045775   
C291     C      0.044183830000     0.906196685000     0.258400680000    -1.18761    
C292     C      0.003122893333     0.924684880000     0.248083370000    -0.417808   
C293     C      0.320363633333     0.919251470000     0.220842100000     0.592281   
C294     C      0.011865810000     0.895418850000     0.203796750000     1.50147    
C295     C      0.052842443333     0.876988300000     0.213964015000    -0.85254    
C296     C      0.069076770000     0.882371550000     0.241184235000     0.813077   
C297     C      0.169397553333     0.526117145000     0.270804300000     0.587513   
C298     C      0.144467680000     0.549939035000     0.288004850000    -0.273838   
C299     C      0.160588253333     0.555270135000     0.315248070000     0.204943   
C300     C      0.201485333333     0.536782800000     0.325456950000     0.022681   
C301     C      0.226365090000     0.512963355000     0.308428050000     0.689646   
C302     C      0.210393746667     0.507584035000     0.281162920000    -0.869979   
C303     C      0.166139206667     0.543757615000     0.221502170000     0.020992   
C304     C      0.047523940000     0.888507600000     0.307681800000    -14.3958    
C305     C      0.151821860000     0.519800365000     0.242007630000    -0.271328   
S306     S      0.306711200000     0.716545835000     0.470138450000     3.10729    
S307     S      0.251543900000     0.862835500000     0.404177800000    -4.84362    
S308     S      0.014832773333     0.802887230000     0.478465950000     8.84305    
S309     S      0.178019833333     0.862757100000     0.455040125000     0.050881   
S310     S      0.111446786667     0.988457350000     0.153206020000     2.17637    
S311     S      0.102416723333     0.943774225000     0.375910135000    -1.00093    
N312     N      0.161174616667     0.870036700000     0.374160650000    -26.0573    
N313     N      0.062188206667     0.705984665000     0.498158425000     1.9714     
N314     N      0.094253133333     0.804957120000     0.434414100000     0.24776    
N315     N      0.121071426667     0.793540050000     0.453526250000    -0.823809   
N316     N      0.205922823333     0.704084000000     0.046348530000     16.8532    
N317     N      0.011010806667     0.568768130000     0.154650400000     0.08211    
N318     N      0.286262453333     0.561876170000     0.116311370000     0.007361   
N319     N      0.139492023333     0.703038650000     0.011913040000    -177.444    
N320     N      0.149473846667     0.596560770000     0.091428375000    -0.078326   
N321     N      0.084244433333     0.677800850000     0.119761735000    -0.379861   
N322     N      0.079186186667     0.667855010000     0.048704880000     0.77124    
N323     N      0.021757756667     0.594546395000     0.082665650000    -0.007862   
N324     N      0.153362940000     0.537083985000     0.193977015000    -0.017603   
N325     N      0.060311810000     0.895163925000     0.335206900000     1.27694    
N326     N      0.112264543333     0.960678550000     0.252987450000     0.258693   
N327     N      0.101330160000     0.971636150000     0.276228000000     0.134367   
O328     O      0.270313900000     0.712549580000     0.491701425000    -3.81482    
O329     O      0.287528633333     0.743713930000     0.450301470000    -1.1237     
O330     O      0.312547366667     0.677077530000     0.452537715000    -7.70272    
O331     O      0.267216166667     0.896881730000     0.419858050000     1.38787    
O332     O      0.266209000000     0.831009300000     0.420894325000     1.8909     
O333     O      0.283218900000     0.860005470000     0.376053200000     7.93372    
O334     O      0.330831446667     0.815432875000     0.451002775000    -6.16877    
O335     O      0.304383966667     0.795745430000     0.494792800000    -2.03775    
O336     O      0.048262720000     0.836017670000     0.494595530000    -1.03231    
O337     O      0.214502366667     0.837115170000     0.467340750000    -0.617669   
O338     O      0.199811000000     0.900201950000     0.455551030000    -0.937453   
O339     O      0.128851940000     0.864508330000     0.474040950000    -0.285341   
O340     O      0.203595800000     0.836807280000     0.380348325000    -37.6797    
O341     O      0.016769010000     0.902809085000     0.320345225000    -2.44612    
O342     O      0.046701273333     0.859259550000     0.349079430000    -1.32204    
O343     O      0.173663556667     0.880356820000     0.351614100000    -346.065    
O344     O      0.144822906667     0.891285030000     0.033767720000    -0.375151   
O345     O      0.072293306667     0.879722265000     0.166769775000     1.38296    
O346     O      0.064073243333     0.887457700000     0.031912875000    -0.238782   
O347     O      0.153043000000     0.883549570000     0.168624600000    -0.269943   
O348     O      0.282862833333     0.531168905000     0.102592355000    -0.198325   
O349     O      0.250504016667     0.584770560000     0.114450950000    -0.089483   
O350     O      0.100978453333     0.723226025000     0.009082470000     19.361     
O351     O      0.156976566667     0.687217310000     0.490549900000     65.6328    
O352     O      0.070623006667     0.649924530000     0.025724990000     3.71113    
O353     O      0.042710050000     0.677029950000     0.063349030000    -0.439875   
O354     O      0.313418846667     0.608240330000     0.074713090000    -0.209897   
O355     O      0.052072213333     0.584191075000     0.064476130000    -0.193066   
O356     O      0.285056053333     0.505887960000     0.218022020000    -0.377796   
O357     O      0.259347366667     0.616780975000     0.142736940000    -0.210577   
O358     O      0.188901033333     0.592366750000     0.154927760000    -0.504567   
O359     O      0.022169033333     0.530302180000     0.205831230000    -0.493905   
O360     O      0.131304710000     0.652653010000     0.170052590000    -0.181258   
O361     O      0.082368576667     0.782401500000     0.362014600000    -10.2517    
O362     O      0.057002066667     0.679195540000     0.169942200000    -0.227444   
O363     O      0.156671216667     0.755859000000     0.362125000000    -0.4944     
O364     O      0.045568466667     0.718187870000     0.011289665000    -6.36919    
O365     O      0.031310120000     0.677889260000     0.044825030000    -0.831551   
O366     O      0.193684776667     0.739810650000     0.497917350000     60.3733    
O367     O      0.179421233333     0.699497300000     0.031464985000    -62.916     
O368     O      0.144594976667     0.675510375000     0.490561300000    -112.12     
O369     O      0.076541623333     0.899993200000     0.381605350000     1.55149    
O370     O      0.158670723333     0.901663800000     0.385666250000     20.6793    
O371     O      0.062465880000     0.673839750000     0.486500400000    -13.1326    
O372     O      0.069218933333     0.962306400000     0.153624800000    -0.373177   
O373     O      0.097569346667     0.516861615000     0.133326950000    -0.448934   
O374     O      0.159896990000     0.965396350000     0.142328665000    -4.2129     
O375     O      0.059301053333     0.964367900000     0.385904430000     30.4748    
O376     O      0.116740766667     0.915396870000     0.395722030000    -5.42361    
O377     O      0.149720786667     0.972977150000     0.375242850000     4.15575    
F378     F      0.176707090000     0.575249970000     0.417773950000     0.199233   
F379     F      0.047585866667     0.537170930000     0.397690500000    -3.27043    
F380     F      0.175374150000     0.502934550000     0.460861750000    -1.96342    
F381     F      0.042601383333     0.535696550000     0.467916130000     0.164949   
Zn0      Zn     0.134321780000     0.585275920000     0.663212240000     1.61648    
Zn1      Zn     0.073110223333     0.536131535000     0.696521450000     1.23312    
Cu2      Cu     0.161319783333     0.709583100000     0.523929905000     86.6219    
Cu3      Cu     0.060632606667     0.707324625000     0.519156590000     2.62446    
Cu4      Cu     0.159008313333     0.872567350000     0.853000375000     268.169    
Cu5      Cu     0.059502890000     0.867586730000     0.847184800000    -2.23077    
H6       H      0.279921766667     0.672182290000     0.943581750000    -0.870692   
H7       H      0.317904453333     0.862625450000     0.882477015000    -3.65138    
H8       H      0.057756696667     0.826338680000     0.512607335000    -0.413114   
H9       H      0.141921360000     0.870614170000     0.992767780000    -0.046142   
H10      H      0.313383966667     0.755992550000     0.890318650000     0.053457   
H11      H      0.312859953333     0.767582475000     0.854795550000     0.350159   
H12      H      0.007350863333     0.726036580000     0.865729330000     0.219907   
H13      H      0.070943723333     0.772213100000     0.857917800000     7.4584     
H14      H      0.071265460000     0.760380150000     0.892995300000    -0.124264   
H15      H      0.022072463333     0.816258670000     0.903611125000     0.472245   
H16      H      0.018176120000     0.827201275000     0.869961750000     0.393419   
H17      H      0.265128910000     0.758309000000     0.943111300000     0.949423   
H18      H      0.268269833333     0.710745035000     0.950931450000     0.445026   
H19      H      0.254306953333     0.723977060000     0.916497530000     1.47592    
H20      H      0.179216433333     0.703608530000     0.938139470000    -0.761785   
H21      H      0.176393066667     0.750226450000     0.929460615000    -0.644198   
H22      H      0.198019366667     0.769888950000     0.977730650000    -3.97614    
H23      H      0.210124900000     0.725677090000     0.986648830000    -40.0403    
H24      H      0.319758016667     0.866821080000     0.820798665000    -6.49212    
H25      H      0.029014230000     0.893293830000     0.802593600000     9.38741    
H26      H      0.011768826667     0.848118275000     0.790283650000    -1.12629    
H27      H      0.093341073333     0.844989270000     0.812886250000     0.128867   
H28      H      0.051069280000     0.822277050000     0.831415650000     0.120218   
H29      H      0.042307596667     0.881739170000     0.861716450000    -2.25354    
H30      H      0.087015000000     0.901826920000     0.844901850000    -3.06993    
H31      H      0.232994100000     0.642231050000     0.515996815000     0.959394   
H32      H      0.179145266667     0.615438230000     0.521386445000    -0.595424   
H33      H      0.213027120000     0.607300365000     0.991301500000    -1.43481    
H34      H      0.138807233333     0.642055110000     0.978844435000    -8.29063    
H35      H      0.192492433333     0.668154120000     0.975303770000    -17.8808    
H36      H      0.179046610000     0.701255470000     0.520360350000    -59.7131    
H37      H      0.133954966667     0.671471925000     0.526871680000    -48.4511    
H38      H      0.210955380000     0.908463420000     0.545761105000    -0.059299   
H39      H      0.245365000000     0.990957350000     0.676082450000     1.03532    
H40      H      0.324349366667     0.985644130000     0.514733140000     0.037932   
H41      H      0.283240233333     0.954649100000     0.996417730000     0.053457   
H42      H      0.267028986667     0.501211820000     0.999895800000     0.045672   
H43      H      0.220291233333     0.969257830000     0.532276570000     0.029638   
H44      H      0.266582000000     0.995042500000     0.551305275000     0.011088   
H45      H      0.321394166667     0.958323550000     0.667120665000    -2.16969    
H46      H      0.014129640000     0.923964000000     0.598631730000    -3.11845    
H47      H      0.043475110000     0.944453450000     0.629246710000     2.06497    
H48      H      0.066236100000     0.902685285000     0.615079125000    -5.54135    
H49      H      0.018483720000     0.890711070000     0.655508350000    -23.605     
H50      H      0.324249743333     0.870095500000     0.625057830000    -2.29134    
H51      H      0.278504666667     0.978139700000     0.636465965000     0.215718   
H52      H      0.320386946667     0.985157500000     0.665855050000     0.482424   
H53      H      0.315073733333     0.518990695000     0.640350625000     0.026621   
H54      H      0.057608340000     0.983011800000     0.635812200000    -0.995266   
H55      H      0.016659273333     0.977452950000     0.606331200000    -0.802203   
H56      H      0.319817683333     0.917947680000     0.624698200000    -6.65864    
H57      H      0.025097583333     0.926556250000     0.653996950000    -1.10608    
H58      H      0.219489733333     0.972797575000     0.528576605000     0.009015   
H59      H      0.193603433333     0.516256390000     0.537171595000    -0.037688   
H60      H      0.241780766667     0.998089375000     0.558858925000     0.096223   
H61      H      0.137166193333     0.967425250000     0.549076650000     0.063443   
H62      H      0.160558273333     0.991493950000     0.579118340000     0.083896   
H63      H      0.220995586667     0.945377500000     0.587980420000     0.165295   
H64      H      0.206714750000     0.919779420000     0.558514140000     0.051871   
H65      H      0.018599813333     0.960304900000     0.558497360000    -0.092381   
H66      H      0.239950020000     0.880764500000     0.615273880000    -1.85027    
H67      H      0.327659300000     0.853260575000     0.587330930000     0.301968   
H68      H      0.167186616667     0.970631720000     0.653456760000     2.13578    
H69      H      0.242927366667     0.854118800000     0.567928440000    -0.332121   
H70      H      0.261234366667     0.706429350000     0.577893225000     1.84163    
H71      H      0.063314253333     0.575360360000     0.687547625000    -0.165138   
H72      H      0.124861366667     0.603915550000     0.660070000000    -1.01966    
H73      H      0.210166653333     0.678786800000     0.611565850000    -1.00775    
H74      H      0.180786633333     0.608949200000     0.585466815000     0.101779   
H75      H      0.182696423333     0.545942635000     0.585915780000     0.03156    
H76      H      0.122338423333     0.544184280000     0.598387650000     0.046008   
H77      H      0.173496246667     0.559661470000     0.620848545000     0.057728   
H78      H      0.072373886667     0.667242840000     0.637414115000     0.165741   
H79      H      0.066089033333     0.729821325000     0.634381560000    -0.091354   
H80      H      0.093104113333     0.728485270000     0.601879560000    -0.568014   
H81      H      0.130670616667     0.721361580000     0.632716375000    -0.14841    
H82      H      0.217824666667     0.706345600000     0.747845365000     0.040387   
H83      H      0.288911766667     0.682966550000     0.774397880000     0.010106   
H84      H      0.277821166667     0.654755430000     0.818681600000     0.041477   
H85      H      0.194892000000     0.648582900000     0.835976550000     0.055155   
H86      H      0.123183240000     0.670513230000     0.809381200000     0.038396   
H87      H      0.328382766667     0.728083120000     0.784987720000    -0.080389   
H88      H      0.256725886667     0.750117900000     0.758180320000     0.054372   
H89      H      0.266569633333     0.775947750000     0.713025435000     0.026157   
H90      H      0.015694636667     0.781808375000     0.695141820000    -0.01461    
H91      H      0.088227733333     0.762305320000     0.722222910000     0.067816   
H92      H      0.106357300000     0.978402585000     0.840745150000    -2.82176    
H93      H      0.053100963333     0.964035950000     0.799720300000     0.694058   
H94      H      0.299727676667     0.946941585000     0.804282150000     0.231018   
H95      H      0.265690600000     0.945240300000     0.850009400000     5.0033     
H96      H      0.318124800000     0.960458600000     0.891197620000     0.998543   
H97      H      0.124693026667     0.903670600000     0.957233500000     0.21835    
H98      H      0.181119043333     0.857042150000     0.974907370000    -0.403292   
H99      H      0.268677333333     0.858939100000     0.964600350000     0.15689    
H100     H      0.300286566667     0.908274050000     0.937187670000     0.004654   
H101     H      0.244600033333     0.955652120000     0.919967920000     0.835932   
H102     H      0.090048780000     0.596887575000     0.530171575000    -0.341659   
H103     H      0.030649750000     0.608916870000     0.565590200000    -0.054085   
H104     H      0.277703086667     0.622183450000     0.552425265000     0.100191   
H105     H      0.250314700000     0.622367350000     0.503647325000     1.00216    
H106     H      0.308962533333     0.609449595000     0.967987800000     0.165423   
H107     H      0.121179213333     0.672419400000     0.916198450000    -0.876338   
H108     H      0.177459533333     0.721316100000     0.904149150000     0.816528   
H109     H      0.262956123333     0.722836360000     0.923022180000    -1.65973    
H110     H      0.292764400000     0.674675880000     0.953430600000     8.13013    
H111     H      0.237312713333     0.625065200000     0.965104750000    -1.64187    
H112     H      0.120419193333     0.975306350000     0.827726335000     2.74054    
H113     H      0.075456046667     0.822835685000     0.787660600000     0.223715   
H114     H      0.022683960000     0.775695235000     0.764444620000     0.039062   
H115     H      0.266474900000     0.784185530000     0.760000825000     0.191969   
H116     H      0.229808733333     0.840749700000     0.777934370000     1.19097    
H117     H      0.282031376667     0.888262550000     0.801007030000     2.70163    
H118     H      0.264966290000     0.543930410000     0.728173650000     0.075741   
H119     H      0.317249633333     0.591401460000     0.751248800000     0.012171   
H120     H      0.280659733333     0.647994460000     0.769182600000     0.029859   
H121     H      0.191127333333     0.656556070000     0.764735050000     0.05553    
H122     H      0.138296643333     0.609451530000     0.741522700000     0.025257   
H123     H      0.317069566667     0.943260550000     0.761128800000     0.096675   
H124     H      0.288701900000     0.933556850000     0.712932080000    -0.084276   
H125     H      0.332757766667     0.891300800000     0.682699300000    -2.33331    
H126     H      0.072119663333     0.858624370000     0.700729150000     0.072728   
H127     H      0.101079186667     0.868195115000     0.748824640000     0.440579   
H128     H      0.112509023333     0.564143775000     0.780332265000     0.097472   
H129     H      0.141269800000     0.573620320000     0.828472200000     0.009666   
H130     H      0.213821333333     0.540847780000     0.846574600000     0.350469   
H131     H      0.257961890000     0.998613330000     0.816369475000     0.916578   
H132     H      0.229802466667     0.988999900000     0.768133650000     0.974884   
H133     H      0.148497680000     0.953707850000     0.624718020000     1.25545    
H134     H      0.151680766667     0.985241770000     0.893485700000    -0.171261   
H135     H      0.093142260000     0.956981300000     0.701526060000    -0.084631   
C136     C      0.186232943333     0.861879530000     0.898713975000     8.98926    
C137     C      0.031799410000     0.730152200000     0.984650900000     1.11619    
C138     C      0.160713366667     0.848166650000     0.920937120000    -0.259032   
C139     C      0.050553400000     0.763060870000     0.975202450000    -3.57486    
C140     C      0.116579673333     0.828920450000     0.915575625000    -1.6848     
C141     C      0.100264916667     0.765306400000     0.969268250000     3.96116    
C142     C      0.092398673333     0.833747120000     0.890096650000     8.8973     
C143     C      0.131544133333     0.738118900000     0.979308250000    -10.9666    
C144     C      0.112365513333     0.858180000000     0.871116370000    -24.3117    
C145     C      0.112530826667     0.709969685000     0.995610650000     3.70259    
C146     C      0.043056330000     0.814411300000     0.884987150000    -2.7165     
C147     C      0.050083980000     0.774366700000     0.876692350000     1.51813    
C148     C      0.001093736667     0.754879050000     0.871577600000    -1.15272    
C149     C      0.185636766667     0.741548850000     0.973290680000    -5.51934    
C150     C      0.194613466667     0.730980115000     0.943413700000     4.26093    
C151     C      0.249034133333     0.731036560000     0.938251450000    -1.45904    
C152     C      0.075804780000     0.874744175000     0.850899750000     6.21042    
C153     C      0.061991896667     0.849708950000     0.825769215000    -1.01224    
C154     C      0.019714263333     0.865565420000     0.808816950000     2.07499    
C155     C      0.149037633333     0.685086265000     0.509901045000     201.4      
C156     C      0.169378200000     0.656072260000     0.990410950000     44.1929    
C157     C      0.200490000000     0.628576280000     0.505803110000    -9.74687    
C158     C      0.209143956667     0.861146180000     0.862190450000     125.901    
C159     C      0.011265753333     0.878622920000     0.838633550000     7.52782    
C160     C      0.256706656667     0.867330580000     0.853864200000    -44.7745    
C161     C      0.297065700000     0.872419850000     0.846995385000     25.3649    
C162     C      0.104448923333     0.894297630000     0.545405945000    -0.019799   
C163     C      0.111718753333     0.891045350000     0.656989215000     0.038071   
C164     C      0.279574613333     0.938030950000     0.549978735000    -0.555822   
C165     C      0.286005516667     0.916698950000     0.641054465000    -12.7403    
C166     C      0.328115046667     0.937074550000     0.560348390000     1.54801    
C167     C      0.109581466667     0.906221650000     0.630036235000     0.24112    
C168     C      0.241253600000     0.904565125000     0.628804160000     6.0783     
C169     C      0.012067733333     0.906869150000     0.574261195000     0.496878   
C170     C      0.198384343333     0.924319200000     0.632733600000    -2.74895    
C171     C      0.314667800000     0.876760700000     0.576648825000    -0.307439   
C172     C      0.199969550000     0.955163450000     0.650224270000     2.77558    
C173     C      0.266637583333     0.877307000000     0.565900440000     0.090058   
C174     C      0.244198680000     0.966880050000     0.662882390000    -3.64307    
C175     C      0.248768586667     0.908086950000     0.553161885000     0.09725    
C176     C      0.287153133333     0.948162900000     0.657940075000     6.47372    
C177     C      0.064062820000     0.912641375000     0.616737230000     3.70836    
C178     C      0.104981900000     0.905645450000     0.574319265000     0.455252   
C179     C      0.149337590000     0.917510000000     0.588351845000    -0.435349   
C180     C      0.260306200000     0.971575675000     0.536811380000     0.112139   
C181     C      0.285372713333     0.978646350000     0.510437410000    -0.036946   
C182     C      0.332443853333     0.896548780000     0.635837330000     41.0598    
C183     C      0.032674910000     0.918407900000     0.618621715000     12.4903    
C184     C      0.022150453333     0.930128870000     0.631818490000    -12.0791    
C185     C      0.021902656667     0.971246550000     0.628136070000     2.98678    
C186     C      0.314686400000     0.989406350000     0.643698575000    -0.508848   
C187     C      0.189731666667     0.937304650000     0.574013560000     0.010229   
C188     C      0.170538733333     0.972681135000     0.562187965000    -0.087595   
C189     C      0.152455166667     0.914647000000     0.616809600000     0.544759   
C190     C      0.208829920000     0.991009770000     0.545678610000    -0.024558   
C191     C      0.061038503333     0.907950280000     0.588363100000    -1.0514     
C192     C      0.224051613333     0.698499950000     0.572077425000    -8.85481    
C193     C      0.055107290000     0.579425695000     0.666157185000    -0.162072   
C194     C      0.195071716667     0.683018750000     0.591178560000     3.86331    
C195     C      0.089940600000     0.595530080000     0.650597400000     0.123389   
C196     C      0.146921366667     0.672798975000     0.583814720000    -3.19129    
C197     C      0.079405800000     0.600919635000     0.622925185000    -0.026961   
C198     C      0.128168273333     0.678779365000     0.557144360000     2.96172    
C199     C      0.033526493333     0.589861600000     0.611125290000     0.155715   
C200     C      0.158723900000     0.694870785000     0.538525120000     24.2381    
C201     C      0.332667846667     0.573841655000     0.627746910000    -0.140264   
C202     C      0.116516633333     0.655574560000     0.604259430000     0.952606   
C203     C      0.116618100000     0.618738225000     0.606558050000    -0.231616   
C204     C      0.157246033333     0.559698375000     0.599720950000    -0.100974   
C205     C      0.094322056667     0.716356800000     0.622242510000     0.112019   
C206     C      0.308948533333     0.528285540000     0.704491735000     0.065116   
C207     C      0.235454900000     0.594383390000     0.656267240000     0.411585   
C208     C      0.283153316667     0.551484950000     0.687565625000    -0.00061    
C209     C      0.261256866667     0.571177930000     0.673197790000    -0.150734   
C210     C      0.098238726667     0.671025290000     0.682072775000     0.257916   
C211     C      0.115354733333     0.763909070000     0.850007685000     1.72546    
C212     C      0.105621346667     0.752249630000     0.822413920000    -1.49174    
C213     C      0.107684353333     0.682301910000     0.709737570000    -0.074654   
C214     C      0.090267300000     0.729006710000     0.771427750000    -0.291506   
C215     C      0.122376850000     0.705086450000     0.760828200000     0.093985   
C216     C      0.115189760000     0.692087665000     0.733043360000     0.007816   
C217     C      0.097779543333     0.742187260000     0.799177885000     0.667758   
C218     C      0.165218483333     0.690910175000     0.776880325000    -0.0343     
C219     C      0.212318733333     0.693684430000     0.767009950000    -0.047292   
C220     C      0.252713920000     0.680588035000     0.782037885000    -0.033639   
C221     C      0.246486146667     0.664626730000     0.806991900000    -0.036156   
C222     C      0.199750920000     0.661189950000     0.816757680000    -0.024432   
C223     C      0.159216966667     0.673912915000     0.801693800000    -0.036201   
C224     C      0.047063286667     0.742788750000     0.755399450000     0.046484   
C225     C      0.000136473333     0.740015075000     0.765506685000     0.110918   
C226     C      0.292696753333     0.752174850000     0.750301000000    -0.156446   
C227     C      0.298252283333     0.766948400000     0.724872250000    -0.11525    
C228     C      0.011408860000     0.770319285000     0.714823000000    -0.014302   
C229     C      0.052397410000     0.758859900000     0.730147660000    -0.043317   
C230     C      0.016920566667     0.700535820000     0.526511140000     0.000652   
C231     C      0.257990300000     0.711342275000     0.519840255000    -12.2852    
C232     C      0.300330220000     0.706363950000     0.522916585000     5.08432    
C233     C      0.208066243333     0.717167150000     0.516243525000     26.0096    
C234     C      0.104318340000     0.659349485000     0.982658200000     46.8753    
C235     C      0.143141350000     0.582328675000     0.936666100000    -3.31246    
C236     C      0.079595180000     0.511832385000     0.906844600000     16.8364    
C237     C      0.145102466667     0.994557380000     0.938798850000     4.44516    
C238     C      0.116818476667     0.916156200000     0.889505180000    -0.898978   
C239     C      0.074433873333     0.562332115000     0.961942525000    -2.69133    
C240     C      0.141412000000     0.616593500000     0.949411550000     7.30308    
C241     C      0.081357673333     0.977961800000     0.893493850000    -32.6068    
C242     C      0.146836053333     0.960283130000     0.926068300000    -4.89494    
C243     C      0.072670300000     0.596189945000     0.975312770000     5.73071    
C244     C      0.106155106667     0.623623730000     0.968967100000    -15.3419    
C245     C      0.114982233333     0.951888325000     0.903186530000     11.7579    
C246     C      0.109647000000     0.555518475000     0.942860125000     2.9808     
C247     C      0.111482243333     0.520010875000     0.929259030000    -3.99365    
C248     C      0.175441343333     0.645098250000     0.941294850000    -3.89801    
C249     C      0.158709486667     0.672499580000     0.924156800000     2.93538    
C250     C      0.190384700000     0.700287475000     0.917431830000    -2.69483    
C251     C      0.238635966667     0.701113565000     0.928036185000     3.11364    
C252     C      0.255462166667     0.673910470000     0.945132165000    -4.75463    
C253     C      0.224077966667     0.645822465000     0.951639475000     4.82446    
C254     C      0.049173210000     0.970788900000     0.868850530000    -19.4162    
C255     C      0.068295776667     0.971592100000     0.842916100000     8.77134    
C256     C      0.038332110000     0.963287175000     0.819692900000    -3.59226    
C257     C      0.322732450000     0.953707575000     0.822261500000     2.71276    
C258     C      0.303521266667     0.952828400000     0.848042725000    -0.207852   
C259     C      0.333208866667     0.961557030000     0.871301450000    -2.43291    
C260     C      0.180793533333     0.933150680000     0.937577220000     1.89114    
C261     C      0.163059343333     0.905093075000     0.953034450000    -0.672218   
C262     C      0.194832500000     0.878581525000     0.962925800000     1.21667    
C263     C      0.244238633333     0.879683800000     0.957154275000    -0.044241   
C264     C      0.262075266667     0.907548300000     0.941747220000    -0.234749   
C265     C      0.230540300000     0.934373400000     0.932102700000    -0.45902    
C266     C      0.036892363333     0.601975750000     0.996581675000    -1.80767    
C267     C      0.052234193333     0.602021740000     0.524226310000    -1.57701    
C268     C      0.018780156667     0.609008775000     0.544292865000     0.635204   
C269     C      0.303426733333     0.616427550000     0.536868690000    -0.039788   
C270     C      0.287971813333     0.616453355000     0.509367345000    -0.747818   
C271     C      0.321172333333     0.609030835000     0.989240700000     0.662751   
C272     C      0.061801810000     0.912492900000     0.787190400000     3.61654    
C273     C      0.124297733333     0.988451600000     0.734553175000     0.265478   
C274     C      0.089299800000     0.943854950000     0.794656575000     0.994255   
C275     C      0.112455426667     0.981986100000     0.707167240000     0.076918   
C276     C      0.101149166667     0.950300650000     0.822049050000     0.922903   
C277     C      0.126203090000     0.505722700000     0.687002400000    -1.77938    
C278     C      0.087429933333     0.926543450000     0.842176615000     5.76569    
C279     C      0.015501820000     0.857771400000     0.798020850000     0.841227   
C280     C      0.036246283333     0.826455770000     0.786446750000     0.49193    
C281     C      0.006531023333     0.799867450000     0.773072570000     0.015731   
C282     C      0.289409433333     0.804722050000     0.770455630000    -0.508435   
C283     C      0.268712420000     0.836495520000     0.780734050000     1.27596    
C284     C      0.298308866667     0.863137100000     0.794114830000    -1.28225    
C285     C      0.198200980000     0.574473320000     0.731160450000    -0.02001    
C286     C      0.248716653333     0.569068670000     0.735066115000    -0.049896   
C287     C      0.278350066667     0.595690070000     0.748448415000    -0.01663    
C288     C      0.257694033333     0.627477585000     0.758727700000    -0.035341   
C289     C      0.207249733333     0.632371070000     0.756111115000    -0.024596   
C290     C      0.177503190000     0.605802415000     0.742736850000    -0.045775   
C291     C      0.044183830000     0.906196685000     0.758400680000    -1.18761    
C292     C      0.003122893333     0.924684880000     0.748083370000    -0.417808   
C293     C      0.320363633333     0.919251470000     0.720842100000     0.592281   
C294     C      0.011865810000     0.895418850000     0.703796750000     1.50147    
C295     C      0.052842443333     0.876988300000     0.713964015000    -0.85254    
C296     C      0.069076770000     0.882371550000     0.741184235000     0.813077   
C297     C      0.169397553333     0.526117145000     0.770804300000     0.587513   
C298     C      0.144467680000     0.549939035000     0.788004850000    -0.273838   
C299     C      0.160588253333     0.555270135000     0.815248070000     0.204943   
C300     C      0.201485333333     0.536782800000     0.825456950000     0.022681   
C301     C      0.226365090000     0.512963355000     0.808428050000     0.689646   
C302     C      0.210393746667     0.507584035000     0.781162920000    -0.869979   
C303     C      0.166139206667     0.543757615000     0.721502170000     0.020992   
C304     C      0.047523940000     0.888507600000     0.807681800000    -14.3958    
C305     C      0.151821860000     0.519800365000     0.742007630000    -0.271328   
S306     S      0.306711200000     0.716545835000     0.970138450000     3.10729    
S307     S      0.251543900000     0.862835500000     0.904177800000    -4.84362    
S308     S      0.014832773333     0.802887230000     0.978465950000     8.84305    
S309     S      0.178019833333     0.862757100000     0.955040125000     0.050881   
S310     S      0.111446786667     0.988457350000     0.653206020000     2.17637    
S311     S      0.102416723333     0.943774225000     0.875910135000    -1.00093    
N312     N      0.161174616667     0.870036700000     0.874160650000    -26.0573    
N313     N      0.062188206667     0.705984665000     0.998158425000     1.9714     
N314     N      0.094253133333     0.804957120000     0.934414100000     0.24776    
N315     N      0.121071426667     0.793540050000     0.953526250000    -0.823809   
N316     N      0.205922823333     0.704084000000     0.546348530000     16.8532    
N317     N      0.011010806667     0.568768130000     0.654650400000     0.08211    
N318     N      0.286262453333     0.561876170000     0.616311370000     0.007361   
N319     N      0.139492023333     0.703038650000     0.511913040000    -177.444    
N320     N      0.149473846667     0.596560770000     0.591428375000    -0.078326   
N321     N      0.084244433333     0.677800850000     0.619761735000    -0.379861   
N322     N      0.079186186667     0.667855010000     0.548704880000     0.77124    
N323     N      0.021757756667     0.594546395000     0.582665650000    -0.007862   
N324     N      0.153362940000     0.537083985000     0.693977015000    -0.017603   
N325     N      0.060311810000     0.895163925000     0.835206900000     1.27694    
N326     N      0.112264543333     0.960678550000     0.752987450000     0.258693   
N327     N      0.101330160000     0.971636150000     0.776228000000     0.134367   
O328     O      0.270313900000     0.712549580000     0.991701425000    -3.81482    
O329     O      0.287528633333     0.743713930000     0.950301470000    -1.1237     
O330     O      0.312547366667     0.677077530000     0.952537715000    -7.70272    
O331     O      0.267216166667     0.896881730000     0.919858050000     1.38787    
O332     O      0.266209000000     0.831009300000     0.920894325000     1.8909     
O333     O      0.283218900000     0.860005470000     0.876053200000     7.93372    
O334     O      0.330831446667     0.815432875000     0.951002775000    -6.16877    
O335     O      0.304383966667     0.795745430000     0.994792800000    -2.03775    
O336     O      0.048262720000     0.836017670000     0.994595530000    -1.03231    
O337     O      0.214502366667     0.837115170000     0.967340750000    -0.617669   
O338     O      0.199811000000     0.900201950000     0.955551030000    -0.937453   
O339     O      0.128851940000     0.864508330000     0.974040950000    -0.285341   
O340     O      0.203595800000     0.836807280000     0.880348325000    -37.6797    
O341     O      0.016769010000     0.902809085000     0.820345225000    -2.44612    
O342     O      0.046701273333     0.859259550000     0.849079430000    -1.32204    
O343     O      0.173663556667     0.880356820000     0.851614100000    -346.065    
O344     O      0.144822906667     0.891285030000     0.533767720000    -0.375151   
O345     O      0.072293306667     0.879722265000     0.666769775000     1.38296    
O346     O      0.064073243333     0.887457700000     0.531912875000    -0.238782   
O347     O      0.153043000000     0.883549570000     0.668624600000    -0.269943   
O348     O      0.282862833333     0.531168905000     0.602592355000    -0.198325   
O349     O      0.250504016667     0.584770560000     0.614450950000    -0.089483   
O350     O      0.100978453333     0.723226025000     0.509082470000     19.361     
O351     O      0.156976566667     0.687217310000     0.990549900000     65.6328    
O352     O      0.070623006667     0.649924530000     0.525724990000     3.71113    
O353     O      0.042710050000     0.677029950000     0.563349030000    -0.439875   
O354     O      0.313418846667     0.608240330000     0.574713090000    -0.209897   
O355     O      0.052072213333     0.584191075000     0.564476130000    -0.193066   
O356     O      0.285056053333     0.505887960000     0.718022020000    -0.377796   
O357     O      0.259347366667     0.616780975000     0.642736940000    -0.210577   
O358     O      0.188901033333     0.592366750000     0.654927760000    -0.504567   
O359     O      0.022169033333     0.530302180000     0.705831230000    -0.493905   
O360     O      0.131304710000     0.652653010000     0.670052590000    -0.181258   
O361     O      0.082368576667     0.782401500000     0.862014600000    -10.2517    
O362     O      0.057002066667     0.679195540000     0.669942200000    -0.227444   
O363     O      0.156671216667     0.755859000000     0.862125000000    -0.4944     
O364     O      0.045568466667     0.718187870000     0.511289665000    -6.36919    
O365     O      0.031310120000     0.677889260000     0.544825030000    -0.831551   
O366     O      0.193684776667     0.739810650000     0.997917350000     60.3733    
O367     O      0.179421233333     0.699497300000     0.531464985000    -62.916     
O368     O      0.144594976667     0.675510375000     0.990561300000    -112.12     
O369     O      0.076541623333     0.899993200000     0.881605350000     1.55149    
O370     O      0.158670723333     0.901663800000     0.885666250000     20.6793    
O371     O      0.062465880000     0.673839750000     0.986500400000    -13.1326    
O372     O      0.069218933333     0.962306400000     0.653624800000    -0.373177   
O373     O      0.097569346667     0.516861615000     0.633326950000    -0.448934   
O374     O      0.159896990000     0.965396350000     0.642328665000    -4.2129     
O375     O      0.059301053333     0.964367900000     0.885904430000     30.4748    
O376     O      0.116740766667     0.915396870000     0.895722030000    -5.42361    
O377     O      0.149720786667     0.972977150000     0.875242850000     4.15575    
F378     F      0.176707090000     0.575249970000     0.917773950000     0.199233   
F379     F      0.047585866667     0.537170930000     0.897690500000    -3.27043    
F380     F      0.175374150000     0.502934550000     0.960861750000    -1.96342    
F381     F      0.042601383333     0.535696550000     0.967916130000     0.164949   
Zn0      Zn     0.467655113333     0.085275920000     0.163212240000     1.61648    
Zn1      Zn     0.406443556667     0.036131535000     0.196521450000     1.23312    
Cu2      Cu     0.494653116667     0.209583100000     0.023929905000     86.6219    
Cu3      Cu     0.393965940000     0.207324625000     0.019156590000     2.62446    
Cu4      Cu     0.492341646667     0.372567350000     0.353000375000     268.169    
Cu5      Cu     0.392836223333     0.367586730000     0.347184800000    -2.23077    
H6       H      0.613255100000     0.172182290000     0.443581750000    -0.870692   
H7       H      0.651237786667     0.362625450000     0.382477015000    -3.65138    
H8       H      0.391090030000     0.326338680000     0.012607335000    -0.413114   
H9       H      0.475254693333     0.370614170000     0.492767780000    -0.046142   
H10      H      0.646717300000     0.255992550000     0.390318650000     0.053457   
H11      H      0.646193286667     0.267582475000     0.354795550000     0.350159   
H12      H      0.340684196667     0.226036580000     0.365729330000     0.219907   
H13      H      0.404277056667     0.272213100000     0.357917800000     7.4584     
H14      H      0.404598793333     0.260380150000     0.392995300000    -0.124264   
H15      H      0.355405796667     0.316258670000     0.403611125000     0.472245   
H16      H      0.351509453333     0.327201275000     0.369961750000     0.393419   
H17      H      0.598462243333     0.258309000000     0.443111300000     0.949423   
H18      H      0.601603166667     0.210745035000     0.450931450000     0.445026   
H19      H      0.587640286667     0.223977060000     0.416497530000     1.47592    
H20      H      0.512549766667     0.203608530000     0.438139470000    -0.761785   
H21      H      0.509726400000     0.250226450000     0.429460615000    -0.644198   
H22      H      0.531352700000     0.269888950000     0.477730650000    -3.97614    
H23      H      0.543458233333     0.225677090000     0.486648830000    -40.0403    
H24      H      0.653091350000     0.366821080000     0.320798665000    -6.49212    
H25      H      0.362347563333     0.393293830000     0.302593600000     9.38741    
H26      H      0.345102160000     0.348118275000     0.290283650000    -1.12629    
H27      H      0.426674406667     0.344989270000     0.312886250000     0.128867   
H28      H      0.384402613333     0.322277050000     0.331415650000     0.120218   
H29      H      0.375640930000     0.381739170000     0.361716450000    -2.25354    
H30      H      0.420348333333     0.401826920000     0.344901850000    -3.06993    
H31      H      0.566327433333     0.142231050000     0.015996815000     0.959394   
H32      H      0.512478600000     0.115438230000     0.021386445000    -0.595424   
H33      H      0.546360453333     0.107300365000     0.491301500000    -1.43481    
H34      H      0.472140566667     0.142055110000     0.478844435000    -8.29063    
H35      H      0.525825766667     0.168154120000     0.475303770000    -17.8808    
H36      H      0.512379943333     0.201255470000     0.020360350000    -59.7131    
H37      H      0.467288300000     0.171471925000     0.026871680000    -48.4511    
H38      H      0.544288713333     0.408463420000     0.045761105000    -0.059299   
H39      H      0.578698333333     0.490957350000     0.176082450000     1.03532    
H40      H      0.657682700000     0.485644130000     0.014733140000     0.037932   
H41      H      0.616573566667     0.454649100000     0.496417730000     0.053457   
H42      H      0.600362320000     0.001211820000     0.499895800000     0.045672   
H43      H      0.553624566667     0.469257830000     0.032276570000     0.029638   
H44      H      0.599915333333     0.495042500000     0.051305275000     0.011088   
H45      H      0.654727500000     0.458323550000     0.167120665000    -2.16969    
H46      H      0.347462973333     0.423964000000     0.098631730000    -3.11845    
H47      H      0.376808443333     0.444453450000     0.129246710000     2.06497    
H48      H      0.399569433333     0.402685285000     0.115079125000    -5.54135    
H49      H      0.351817053333     0.390711070000     0.155508350000    -23.605     
H50      H      0.657583076667     0.370095500000     0.125057830000    -2.29134    
H51      H      0.611838000000     0.478139700000     0.136465965000     0.215718   
H52      H      0.653720280000     0.485157500000     0.165855050000     0.482424   
H53      H      0.648407066667     0.018990695000     0.140350625000     0.026621   
H54      H      0.390941673333     0.483011800000     0.135812200000    -0.995266   
H55      H      0.349992606667     0.477452950000     0.106331200000    -0.802203   
H56      H      0.653151016667     0.417947680000     0.124698200000    -6.65864    
H57      H      0.358430916667     0.426556250000     0.153996950000    -1.10608    
H58      H      0.552823066667     0.472797575000     0.028576605000     0.009015   
H59      H      0.526936766667     0.016256390000     0.037171595000    -0.037688   
H60      H      0.575114100000     0.498089375000     0.058858925000     0.096223   
H61      H      0.470499526667     0.467425250000     0.049076650000     0.063443   
H62      H      0.493891606667     0.491493950000     0.079118340000     0.083896   
H63      H      0.554328920000     0.445377500000     0.087980420000     0.165295   
H64      H      0.540048083333     0.419779420000     0.058514140000     0.051871   
H65      H      0.351933146667     0.460304900000     0.058497360000    -0.092381   
H66      H      0.573283353333     0.380764500000     0.115273880000    -1.85027    
H67      H      0.660992633333     0.353260575000     0.087330930000     0.301968   
H68      H      0.500519950000     0.470631720000     0.153456760000     2.13578    
H69      H      0.576260700000     0.354118800000     0.067928440000    -0.332121   
H70      H      0.594567700000     0.206429350000     0.077893225000     1.84163    
H71      H      0.396647586667     0.075360360000     0.187547625000    -0.165138   
H72      H      0.458194700000     0.103915550000     0.160070000000    -1.01966    
H73      H      0.543499986667     0.178786800000     0.111565850000    -1.00775    
H74      H      0.514119966667     0.108949200000     0.085466815000     0.101779   
H75      H      0.516029756667     0.045942635000     0.085915780000     0.03156    
H76      H      0.455671756667     0.044184280000     0.098387650000     0.046008   
H77      H      0.506829580000     0.059661470000     0.120848545000     0.057728   
H78      H      0.405707220000     0.167242840000     0.137414115000     0.165741   
H79      H      0.399422366667     0.229821325000     0.134381560000    -0.091354   
H80      H      0.426437446667     0.228485270000     0.101879560000    -0.568014   
H81      H      0.464003950000     0.221361580000     0.132716375000    -0.14841    
H82      H      0.551158000000     0.206345600000     0.247845365000     0.040387   
H83      H      0.622245100000     0.182966550000     0.274397880000     0.010106   
H84      H      0.611154500000     0.154755430000     0.318681600000     0.041477   
H85      H      0.528225333333     0.148582900000     0.335976550000     0.055155   
H86      H      0.456516573333     0.170513230000     0.309381200000     0.038396   
H87      H      0.661716100000     0.228083120000     0.284987720000    -0.080389   
H88      H      0.590059220000     0.250117900000     0.258180320000     0.054372   
H89      H      0.599902966667     0.275947750000     0.213025435000     0.026157   
H90      H      0.349027970000     0.281808375000     0.195141820000    -0.01461    
H91      H      0.421561066667     0.262305320000     0.222222910000     0.067816   
H92      H      0.439690633333     0.478402585000     0.340745150000    -2.82176    
H93      H      0.386434296667     0.464035950000     0.299720300000     0.694058   
H94      H      0.633061010000     0.446941585000     0.304282150000     0.231018   
H95      H      0.599023933333     0.445240300000     0.350009400000     5.0033     
H96      H      0.651458133333     0.460458600000     0.391197620000     0.998543   
H97      H      0.458026360000     0.403670600000     0.457233500000     0.21835    
H98      H      0.514452376667     0.357042150000     0.474907370000    -0.403292   
H99      H      0.602010666667     0.358939100000     0.464600350000     0.15689    
H100     H      0.633619900000     0.408274050000     0.437187670000     0.004654   
H101     H      0.577933366667     0.455652120000     0.419967920000     0.835932   
H102     H      0.423382113333     0.096887575000     0.030171575000    -0.341659   
H103     H      0.363983083333     0.108916870000     0.065590200000    -0.054085   
H104     H      0.611036420000     0.122183450000     0.052425265000     0.100191   
H105     H      0.583648033333     0.122367350000     0.003647325000     1.00216    
H106     H      0.642295866667     0.109449595000     0.467987800000     0.165423   
H107     H      0.454512546667     0.172419400000     0.416198450000    -0.876338   
H108     H      0.510792866667     0.221316100000     0.404149150000     0.816528   
H109     H      0.596289456667     0.222836360000     0.423022180000    -1.65973    
H110     H      0.626097733333     0.174675880000     0.453430600000     8.13013    
H111     H      0.570646046667     0.125065200000     0.465104750000    -1.64187    
H112     H      0.453752526667     0.475306350000     0.327726335000     2.74054    
H113     H      0.408789380000     0.322835685000     0.287660600000     0.223715   
H114     H      0.356017293333     0.275695235000     0.264444620000     0.039062   
H115     H      0.599808233333     0.284185530000     0.260000825000     0.191969   
H116     H      0.563142066667     0.340749700000     0.277934370000     1.19097    
H117     H      0.615364710000     0.388262550000     0.301007030000     2.70163    
H118     H      0.598299623333     0.043930410000     0.228173650000     0.075741   
H119     H      0.650582966667     0.091401460000     0.251248800000     0.012171   
H120     H      0.613993066667     0.147994460000     0.269182600000     0.029859   
H121     H      0.524460666667     0.156556070000     0.264735050000     0.05553    
H122     H      0.471629976667     0.109451530000     0.241522700000     0.025257   
H123     H      0.650402900000     0.443260550000     0.261128800000     0.096675   
H124     H      0.622035233333     0.433556850000     0.212932080000    -0.084276   
H125     H      0.666091100000     0.391300800000     0.182699300000    -2.33331    
H126     H      0.405452996667     0.358624370000     0.200729150000     0.072728   
H127     H      0.434412520000     0.368195115000     0.248824640000     0.440579   
H128     H      0.445842356667     0.064143775000     0.280332265000     0.097472   
H129     H      0.474603133333     0.073620320000     0.328472200000     0.009666   
H130     H      0.547154666667     0.040847780000     0.346574600000     0.350469   
H131     H      0.591295223333     0.498613330000     0.316369475000     0.916578   
H132     H      0.563135800000     0.488999900000     0.268133650000     0.974884   
H133     H      0.481831013333     0.453707850000     0.124718020000     1.25545    
H134     H      0.485014100000     0.485241770000     0.393485700000    -0.171261   
H135     H      0.426475593333     0.456981300000     0.201526060000    -0.084631   
C136     C      0.519566276667     0.361879530000     0.398713975000     8.98926    
C137     C      0.365132743333     0.230152200000     0.484650900000     1.11619    
C138     C      0.494046700000     0.348166650000     0.420937120000    -0.259032   
C139     C      0.383886733333     0.263060870000     0.475202450000    -3.57486    
C140     C      0.449913006667     0.328920450000     0.415575625000    -1.6848     
C141     C      0.433598250000     0.265306400000     0.469268250000     3.96116    
C142     C      0.425732006667     0.333747120000     0.390096650000     8.8973     
C143     C      0.464877466667     0.238118900000     0.479308250000    -10.9666    
C144     C      0.445698846667     0.358180000000     0.371116370000    -24.3117    
C145     C      0.445864160000     0.209969685000     0.495610650000     3.70259    
C146     C      0.376389663333     0.314411300000     0.384987150000    -2.7165     
C147     C      0.383417313333     0.274366700000     0.376692350000     1.51813    
C148     C      0.334427070000     0.254879050000     0.371577600000    -1.15272    
C149     C      0.518970100000     0.241548850000     0.473290680000    -5.51934    
C150     C      0.527946800000     0.230980115000     0.443413700000     4.26093    
C151     C      0.582367466667     0.231036560000     0.438251450000    -1.45904    
C152     C      0.409138113333     0.374744175000     0.350899750000     6.21042    
C153     C      0.395325230000     0.349708950000     0.325769215000    -1.01224    
C154     C      0.353047596667     0.365565420000     0.308816950000     2.07499    
C155     C      0.482370966667     0.185086265000     0.009901045000     201.4      
C156     C      0.502711533333     0.156072260000     0.490410950000     44.1929    
C157     C      0.533823333333     0.128576280000     0.005803110000    -9.74687    
C158     C      0.542477290000     0.361146180000     0.362190450000     125.901    
C159     C      0.344599086667     0.378622920000     0.338633550000     7.52782    
C160     C      0.590039990000     0.367330580000     0.353864200000    -44.7745    
C161     C      0.630399033333     0.372419850000     0.346995385000     25.3649    
C162     C      0.437782256667     0.394297630000     0.045405945000    -0.019799   
C163     C      0.445052086667     0.391045350000     0.156989215000     0.038071   
C164     C      0.612907946667     0.438030950000     0.049978735000    -0.555822   
C165     C      0.619338850000     0.416698950000     0.141054465000    -12.7403    
C166     C      0.661448380000     0.437074550000     0.060348390000     1.54801    
C167     C      0.442914800000     0.406221650000     0.130036235000     0.24112    
C168     C      0.574586933333     0.404565125000     0.128804160000     6.0783     
C169     C      0.345401066667     0.406869150000     0.074261195000     0.496878   
C170     C      0.531717676667     0.424319200000     0.132733600000    -2.74895    
C171     C      0.648001133333     0.376760700000     0.076648825000    -0.307439   
C172     C      0.533302883333     0.455163450000     0.150224270000     2.77558    
C173     C      0.599970916667     0.377307000000     0.065900440000     0.090058   
C174     C      0.577532013333     0.466880050000     0.162882390000    -3.64307    
C175     C      0.582101920000     0.408086950000     0.053161885000     0.09725    
C176     C      0.620486466667     0.448162900000     0.157940075000     6.47372    
C177     C      0.397396153333     0.412641375000     0.116737230000     3.70836    
C178     C      0.438315233333     0.405645450000     0.074319265000     0.455252   
C179     C      0.482670923333     0.417510000000     0.088351845000    -0.435349   
C180     C      0.593639533333     0.471575675000     0.036811380000     0.112139   
C181     C      0.618706046667     0.478646350000     0.010437410000    -0.036946   
C182     C      0.665777186667     0.396548780000     0.135837330000     41.0598    
C183     C      0.366008243333     0.418407900000     0.118621715000     12.4903    
C184     C      0.355483786667     0.430128870000     0.131818490000    -12.0791    
C185     C      0.355235990000     0.471246550000     0.128136070000     2.98678    
C186     C      0.648019733333     0.489406350000     0.143698575000    -0.508848   
C187     C      0.523065000000     0.437304650000     0.074013560000     0.010229   
C188     C      0.503872066667     0.472681135000     0.062187965000    -0.087595   
C189     C      0.485788500000     0.414647000000     0.116809600000     0.544759   
C190     C      0.542163253333     0.491009770000     0.045678610000    -0.024558   
C191     C      0.394371836667     0.407950280000     0.088363100000    -1.0514     
C192     C      0.557384946667     0.198499950000     0.072077425000    -8.85481    
C193     C      0.388440623333     0.079425695000     0.166157185000    -0.162072   
C194     C      0.528405050000     0.183018750000     0.091178560000     3.86331    
C195     C      0.423273933333     0.095530080000     0.150597400000     0.123389   
C196     C      0.480254700000     0.172798975000     0.083814720000    -3.19129    
C197     C      0.412739133333     0.100919635000     0.122925185000    -0.026961   
C198     C      0.461501606667     0.178779365000     0.057144360000     2.96172    
C199     C      0.366859826667     0.089861600000     0.111125290000     0.155715   
C200     C      0.492057233333     0.194870785000     0.038525120000     24.2381    
C201     C      0.666001180000     0.073841655000     0.127746910000    -0.140264   
C202     C      0.449849966667     0.155574560000     0.104259430000     0.952606   
C203     C      0.449951433333     0.118738225000     0.106558050000    -0.231616   
C204     C      0.490579366667     0.059698375000     0.099720950000    -0.100974   
C205     C      0.427655390000     0.216356800000     0.122242510000     0.112019   
C206     C      0.642281866667     0.028285540000     0.204491735000     0.065116   
C207     C      0.568788233333     0.094383390000     0.156267240000     0.411585   
C208     C      0.616486650000     0.051484950000     0.187565625000    -0.00061    
C209     C      0.594590200000     0.071177930000     0.173197790000    -0.150734   
C210     C      0.431572060000     0.171025290000     0.182072775000     0.257916   
C211     C      0.448688066667     0.263909070000     0.350007685000     1.72546    
C212     C      0.438954680000     0.252249630000     0.322413920000    -1.49174    
C213     C      0.441017686667     0.182301910000     0.209737570000    -0.074654   
C214     C      0.423600633333     0.229006710000     0.271427750000    -0.291506   
C215     C      0.455710183333     0.205086450000     0.260828200000     0.093985   
C216     C      0.448523093333     0.192087665000     0.233043360000     0.007816   
C217     C      0.431112876667     0.242187260000     0.299177885000     0.667758   
C218     C      0.498551816667     0.190910175000     0.276880325000    -0.0343     
C219     C      0.545652066667     0.193684430000     0.267009950000    -0.047292   
C220     C      0.586047253333     0.180588035000     0.282037885000    -0.033639   
C221     C      0.579819480000     0.164626730000     0.306991900000    -0.036156   
C222     C      0.533084253333     0.161189950000     0.316757680000    -0.024432   
C223     C      0.492550300000     0.173912915000     0.301693800000    -0.036201   
C224     C      0.380396620000     0.242788750000     0.255399450000     0.046484   
C225     C      0.333469806667     0.240015075000     0.265506685000     0.110918   
C226     C      0.626030086667     0.252174850000     0.250301000000    -0.156446   
C227     C      0.631585616667     0.266948400000     0.224872250000    -0.11525    
C228     C      0.344742193333     0.270319285000     0.214823000000    -0.014302   
C229     C      0.385730743333     0.258859900000     0.230147660000    -0.043317   
C230     C      0.350253900000     0.200535820000     0.026511140000     0.000652   
C231     C      0.591323633333     0.211342275000     0.019840255000    -12.2852    
C232     C      0.633663553333     0.206363950000     0.022916585000     5.08432    
C233     C      0.541399576667     0.217167150000     0.016243525000     26.0096    
C234     C      0.437651673333     0.159349485000     0.482658200000     46.8753    
C235     C      0.476474683333     0.082328675000     0.436666100000    -3.31246    
C236     C      0.412928513333     0.011832385000     0.406844600000     16.8364    
C237     C      0.478435800000     0.494557380000     0.438798850000     4.44516    
C238     C      0.450151810000     0.416156200000     0.389505180000    -0.898978   
C239     C      0.407767206667     0.062332115000     0.461942525000    -2.69133    
C240     C      0.474745333333     0.116593500000     0.449411550000     7.30308    
C241     C      0.414691006667     0.477961800000     0.393493850000    -32.6068    
C242     C      0.480169386667     0.460283130000     0.426068300000    -4.89494    
C243     C      0.406003633333     0.096189945000     0.475312770000     5.73071    
C244     C      0.439488440000     0.123623730000     0.468967100000    -15.3419    
C245     C      0.448315566667     0.451888325000     0.403186530000     11.7579    
C246     C      0.442980333333     0.055518475000     0.442860125000     2.9808     
C247     C      0.444815576667     0.020010875000     0.429259030000    -3.99365    
C248     C      0.508774676667     0.145098250000     0.441294850000    -3.89801    
C249     C      0.492042820000     0.172499580000     0.424156800000     2.93538    
C250     C      0.523718033333     0.200287475000     0.417431830000    -2.69483    
C251     C      0.571969300000     0.201113565000     0.428036185000     3.11364    
C252     C      0.588795500000     0.173910470000     0.445132165000    -4.75463    
C253     C      0.557411300000     0.145822465000     0.451639475000     4.82446    
C254     C      0.382506543333     0.470788900000     0.368850530000    -19.4162    
C255     C      0.401629110000     0.471592100000     0.342916100000     8.77134    
C256     C      0.371665443333     0.463287175000     0.319692900000    -3.59226    
C257     C      0.656065783333     0.453707575000     0.322261500000     2.71276    
C258     C      0.636854600000     0.452828400000     0.348042725000    -0.207852   
C259     C      0.666542200000     0.461557030000     0.371301450000    -2.43291    
C260     C      0.514126866667     0.433150680000     0.437577220000     1.89114    
C261     C      0.496392676667     0.405093075000     0.453034450000    -0.672218   
C262     C      0.528165833333     0.378581525000     0.462925800000     1.21667    
C263     C      0.577571966667     0.379683800000     0.457154275000    -0.044241   
C264     C      0.595408600000     0.407548300000     0.441747220000    -0.234749   
C265     C      0.563873633333     0.434373400000     0.432102700000    -0.45902    
C266     C      0.370225696667     0.101975750000     0.496581675000    -1.80767    
C267     C      0.385567526667     0.102021740000     0.024226310000    -1.57701    
C268     C      0.352113490000     0.109008775000     0.044292865000     0.635204   
C269     C      0.636760066667     0.116427550000     0.036868690000    -0.039788   
C270     C      0.621305146667     0.116453355000     0.009367345000    -0.747818   
C271     C      0.654505666667     0.109030835000     0.489240700000     0.662751   
C272     C      0.395135143333     0.412492900000     0.287190400000     3.61654    
C273     C      0.457631066667     0.488451600000     0.234553175000     0.265478   
C274     C      0.422633133333     0.443854950000     0.294656575000     0.994255   
C275     C      0.445788760000     0.481986100000     0.207167240000     0.076918   
C276     C      0.434482500000     0.450300650000     0.322049050000     0.922903   
C277     C      0.459536423333     0.005722700000     0.187002400000    -1.77938    
C278     C      0.420763266667     0.426543450000     0.342176615000     5.76569    
C279     C      0.348835153333     0.357771400000     0.298020850000     0.841227   
C280     C      0.369579616667     0.326455770000     0.286446750000     0.49193    
C281     C      0.339864356667     0.299867450000     0.273072570000     0.015731   
C282     C      0.622742766667     0.304722050000     0.270455630000    -0.508435   
C283     C      0.602045753333     0.336495520000     0.280734050000     1.27596    
C284     C      0.631642200000     0.363137100000     0.294114830000    -1.28225    
C285     C      0.531534313333     0.074473320000     0.231160450000    -0.02001    
C286     C      0.582049986667     0.069068670000     0.235066115000    -0.049896   
C287     C      0.611683400000     0.095690070000     0.248448415000    -0.01663    
C288     C      0.591027366667     0.127477585000     0.258727700000    -0.035341   
C289     C      0.540583066667     0.132371070000     0.256111115000    -0.024596   
C290     C      0.510836523333     0.105802415000     0.242736850000    -0.045775   
C291     C      0.377517163333     0.406196685000     0.258400680000    -1.18761    
C292     C      0.336456226667     0.424684880000     0.248083370000    -0.417808   
C293     C      0.653696966667     0.419251470000     0.220842100000     0.592281   
C294     C      0.345199143333     0.395418850000     0.203796750000     1.50147    
C295     C      0.386175776667     0.376988300000     0.213964015000    -0.85254    
C296     C      0.402410103333     0.382371550000     0.241184235000     0.813077   
C297     C      0.502730886667     0.026117145000     0.270804300000     0.587513   
C298     C      0.477801013333     0.049939035000     0.288004850000    -0.273838   
C299     C      0.493921586667     0.055270135000     0.315248070000     0.204943   
C300     C      0.534818666667     0.036782800000     0.325456950000     0.022681   
C301     C      0.559698423333     0.012963355000     0.308428050000     0.689646   
C302     C      0.543727080000     0.007584035000     0.281162920000    -0.869979   
C303     C      0.499472540000     0.043757615000     0.221502170000     0.020992   
C304     C      0.380857273333     0.388507600000     0.307681800000    -14.3958    
C305     C      0.485155193333     0.019800365000     0.242007630000    -0.271328   
S306     S      0.640044533333     0.216545835000     0.470138450000     3.10729    
S307     S      0.584877233333     0.362835500000     0.404177800000    -4.84362    
S308     S      0.348166106667     0.302887230000     0.478465950000     8.84305    
S309     S      0.511353166667     0.362757100000     0.455040125000     0.050881   
S310     S      0.444780120000     0.488457350000     0.153206020000     2.17637    
S311     S      0.435750056667     0.443774225000     0.375910135000    -1.00093    
N312     N      0.494507950000     0.370036700000     0.374160650000    -26.0573    
N313     N      0.395521540000     0.205984665000     0.498158425000     1.9714     
N314     N      0.427586466667     0.304957120000     0.434414100000     0.24776    
N315     N      0.454404760000     0.293540050000     0.453526250000    -0.823809   
N316     N      0.539256156667     0.204084000000     0.046348530000     16.8532    
N317     N      0.344344140000     0.068768130000     0.154650400000     0.08211    
N318     N      0.619595786667     0.061876170000     0.116311370000     0.007361   
N319     N      0.472825356667     0.203038650000     0.011913040000    -177.444    
N320     N      0.482807180000     0.096560770000     0.091428375000    -0.078326   
N321     N      0.417577766667     0.177800850000     0.119761735000    -0.379861   
N322     N      0.412519520000     0.167855010000     0.048704880000     0.77124    
N323     N      0.355091090000     0.094546395000     0.082665650000    -0.007862   
N324     N      0.486696273333     0.037083985000     0.193977015000    -0.017603   
N325     N      0.393645143333     0.395163925000     0.335206900000     1.27694    
N326     N      0.445597876667     0.460678550000     0.252987450000     0.258693   
N327     N      0.434663493333     0.471636150000     0.276228000000     0.134367   
O328     O      0.603647233333     0.212549580000     0.491701425000    -3.81482    
O329     O      0.620861966667     0.243713930000     0.450301470000    -1.1237     
O330     O      0.645880700000     0.177077530000     0.452537715000    -7.70272    
O331     O      0.600549500000     0.396881730000     0.419858050000     1.38787    
O332     O      0.599542333333     0.331009300000     0.420894325000     1.8909     
O333     O      0.616552233333     0.360005470000     0.376053200000     7.93372    
O334     O      0.664164780000     0.315432875000     0.451002775000    -6.16877    
O335     O      0.637717300000     0.295745430000     0.494792800000    -2.03775    
O336     O      0.381596053333     0.336017670000     0.494595530000    -1.03231    
O337     O      0.547835700000     0.337115170000     0.467340750000    -0.617669   
O338     O      0.533144333333     0.400201950000     0.455551030000    -0.937453   
O339     O      0.462185273333     0.364508330000     0.474040950000    -0.285341   
O340     O      0.536929133333     0.336807280000     0.380348325000    -37.6797    
O341     O      0.350102343333     0.402809085000     0.320345225000    -2.44612    
O342     O      0.380034606667     0.359259550000     0.349079430000    -1.32204    
O343     O      0.506996890000     0.380356820000     0.351614100000    -346.065    
O344     O      0.478156240000     0.391285030000     0.033767720000    -0.375151   
O345     O      0.405626640000     0.379722265000     0.166769775000     1.38296    
O346     O      0.397406576667     0.387457700000     0.031912875000    -0.238782   
O347     O      0.486376333333     0.383549570000     0.168624600000    -0.269943   
O348     O      0.616196166667     0.031168905000     0.102592355000    -0.198325   
O349     O      0.583837350000     0.084770560000     0.114450950000    -0.089483   
O350     O      0.434311786667     0.223226025000     0.009082470000     19.361     
O351     O      0.490309900000     0.187217310000     0.490549900000     65.6328    
O352     O      0.403956340000     0.149924530000     0.025724990000     3.71113    
O353     O      0.376043383333     0.177029950000     0.063349030000    -0.439875   
O354     O      0.646752180000     0.108240330000     0.074713090000    -0.209897   
O355     O      0.385405546667     0.084191075000     0.064476130000    -0.193066   
O356     O      0.618389386667     0.005887960000     0.218022020000    -0.377796   
O357     O      0.592680700000     0.116780975000     0.142736940000    -0.210577   
O358     O      0.522234366667     0.092366750000     0.154927760000    -0.504567   
O359     O      0.355502366667     0.030302180000     0.205831230000    -0.493905   
O360     O      0.464638043333     0.152653010000     0.170052590000    -0.181258   
O361     O      0.415701910000     0.282401500000     0.362014600000    -10.2517    
O362     O      0.390335400000     0.179195540000     0.169942200000    -0.227444   
O363     O      0.490004550000     0.255859000000     0.362125000000    -0.4944     
O364     O      0.378901800000     0.218187870000     0.011289665000    -6.36919    
O365     O      0.364643453333     0.177889260000     0.044825030000    -0.831551   
O366     O      0.527018110000     0.239810650000     0.497917350000     60.3733    
O367     O      0.512754566667     0.199497300000     0.031464985000    -62.916     
O368     O      0.477928310000     0.175510375000     0.490561300000    -112.12     
O369     O      0.409874956667     0.399993200000     0.381605350000     1.55149    
O370     O      0.492004056667     0.401663800000     0.385666250000     20.6793    
O371     O      0.395799213333     0.173839750000     0.486500400000    -13.1326    
O372     O      0.402552266667     0.462306400000     0.153624800000    -0.373177   
O373     O      0.430902680000     0.016861615000     0.133326950000    -0.448934   
O374     O      0.493230323333     0.465396350000     0.142328665000    -4.2129     
O375     O      0.392634386667     0.464367900000     0.385904430000     30.4748    
O376     O      0.450074100000     0.415396870000     0.395722030000    -5.42361    
O377     O      0.483054120000     0.472977150000     0.375242850000     4.15575    
F378     F      0.510040423333     0.075249970000     0.417773950000     0.199233   
F379     F      0.380919200000     0.037170930000     0.397690500000    -3.27043    
F380     F      0.508707483333     0.002934550000     0.460861750000    -1.96342    
F381     F      0.375934716667     0.035696550000     0.467916130000     0.164949   
Zn0      Zn     0.467655113333     0.085275920000     0.663212240000     1.61648    
Zn1      Zn     0.406443556667     0.036131535000     0.696521450000     1.23312    
Cu2      Cu     0.494653116667     0.209583100000     0.523929905000     86.6219    
Cu3      Cu     0.393965940000     0.207324625000     0.519156590000     2.62446    
Cu4      Cu     0.492341646667     0.372567350000     0.853000375000     268.169    
Cu5      Cu     0.392836223333     0.367586730000     0.847184800000    -2.23077    
H6       H      0.613255100000     0.172182290000     0.943581750000    -0.870692   
H7       H      0.651237786667     0.362625450000     0.882477015000    -3.65138    
H8       H      0.391090030000     0.326338680000     0.512607335000    -0.413114   
H9       H      0.475254693333     0.370614170000     0.992767780000    -0.046142   
H10      H      0.646717300000     0.255992550000     0.890318650000     0.053457   
H11      H      0.646193286667     0.267582475000     0.854795550000     0.350159   
H12      H      0.340684196667     0.226036580000     0.865729330000     0.219907   
H13      H      0.404277056667     0.272213100000     0.857917800000     7.4584     
H14      H      0.404598793333     0.260380150000     0.892995300000    -0.124264   
H15      H      0.355405796667     0.316258670000     0.903611125000     0.472245   
H16      H      0.351509453333     0.327201275000     0.869961750000     0.393419   
H17      H      0.598462243333     0.258309000000     0.943111300000     0.949423   
H18      H      0.601603166667     0.210745035000     0.950931450000     0.445026   
H19      H      0.587640286667     0.223977060000     0.916497530000     1.47592    
H20      H      0.512549766667     0.203608530000     0.938139470000    -0.761785   
H21      H      0.509726400000     0.250226450000     0.929460615000    -0.644198   
H22      H      0.531352700000     0.269888950000     0.977730650000    -3.97614    
H23      H      0.543458233333     0.225677090000     0.986648830000    -40.0403    
H24      H      0.653091350000     0.366821080000     0.820798665000    -6.49212    
H25      H      0.362347563333     0.393293830000     0.802593600000     9.38741    
H26      H      0.345102160000     0.348118275000     0.790283650000    -1.12629    
H27      H      0.426674406667     0.344989270000     0.812886250000     0.128867   
H28      H      0.384402613333     0.322277050000     0.831415650000     0.120218   
H29      H      0.375640930000     0.381739170000     0.861716450000    -2.25354    
H30      H      0.420348333333     0.401826920000     0.844901850000    -3.06993    
H31      H      0.566327433333     0.142231050000     0.515996815000     0.959394   
H32      H      0.512478600000     0.115438230000     0.521386445000    -0.595424   
H33      H      0.546360453333     0.107300365000     0.991301500000    -1.43481    
H34      H      0.472140566667     0.142055110000     0.978844435000    -8.29063    
H35      H      0.525825766667     0.168154120000     0.975303770000    -17.8808    
H36      H      0.512379943333     0.201255470000     0.520360350000    -59.7131    
H37      H      0.467288300000     0.171471925000     0.526871680000    -48.4511    
H38      H      0.544288713333     0.408463420000     0.545761105000    -0.059299   
H39      H      0.578698333333     0.490957350000     0.676082450000     1.03532    
H40      H      0.657682700000     0.485644130000     0.514733140000     0.037932   
H41      H      0.616573566667     0.454649100000     0.996417730000     0.053457   
H42      H      0.600362320000     0.001211820000     0.999895800000     0.045672   
H43      H      0.553624566667     0.469257830000     0.532276570000     0.029638   
H44      H      0.599915333333     0.495042500000     0.551305275000     0.011088   
H45      H      0.654727500000     0.458323550000     0.667120665000    -2.16969    
H46      H      0.347462973333     0.423964000000     0.598631730000    -3.11845    
H47      H      0.376808443333     0.444453450000     0.629246710000     2.06497    
H48      H      0.399569433333     0.402685285000     0.615079125000    -5.54135    
H49      H      0.351817053333     0.390711070000     0.655508350000    -23.605     
H50      H      0.657583076667     0.370095500000     0.625057830000    -2.29134    
H51      H      0.611838000000     0.478139700000     0.636465965000     0.215718   
H52      H      0.653720280000     0.485157500000     0.665855050000     0.482424   
H53      H      0.648407066667     0.018990695000     0.640350625000     0.026621   
H54      H      0.390941673333     0.483011800000     0.635812200000    -0.995266   
H55      H      0.349992606667     0.477452950000     0.606331200000    -0.802203   
H56      H      0.653151016667     0.417947680000     0.624698200000    -6.65864    
H57      H      0.358430916667     0.426556250000     0.653996950000    -1.10608    
H58      H      0.552823066667     0.472797575000     0.528576605000     0.009015   
H59      H      0.526936766667     0.016256390000     0.537171595000    -0.037688   
H60      H      0.575114100000     0.498089375000     0.558858925000     0.096223   
H61      H      0.470499526667     0.467425250000     0.549076650000     0.063443   
H62      H      0.493891606667     0.491493950000     0.579118340000     0.083896   
H63      H      0.554328920000     0.445377500000     0.587980420000     0.165295   
H64      H      0.540048083333     0.419779420000     0.558514140000     0.051871   
H65      H      0.351933146667     0.460304900000     0.558497360000    -0.092381   
H66      H      0.573283353333     0.380764500000     0.615273880000    -1.85027    
H67      H      0.660992633333     0.353260575000     0.587330930000     0.301968   
H68      H      0.500519950000     0.470631720000     0.653456760000     2.13578    
H69      H      0.576260700000     0.354118800000     0.567928440000    -0.332121   
H70      H      0.594567700000     0.206429350000     0.577893225000     1.84163    
H71      H      0.396647586667     0.075360360000     0.687547625000    -0.165138   
H72      H      0.458194700000     0.103915550000     0.660070000000    -1.01966    
H73      H      0.543499986667     0.178786800000     0.611565850000    -1.00775    
H74      H      0.514119966667     0.108949200000     0.585466815000     0.101779   
H75      H      0.516029756667     0.045942635000     0.585915780000     0.03156    
H76      H      0.455671756667     0.044184280000     0.598387650000     0.046008   
H77      H      0.506829580000     0.059661470000     0.620848545000     0.057728   
H78      H      0.405707220000     0.167242840000     0.637414115000     0.165741   
H79      H      0.399422366667     0.229821325000     0.634381560000    -0.091354   
H80      H      0.426437446667     0.228485270000     0.601879560000    -0.568014   
H81      H      0.464003950000     0.221361580000     0.632716375000    -0.14841    
H82      H      0.551158000000     0.206345600000     0.747845365000     0.040387   
H83      H      0.622245100000     0.182966550000     0.774397880000     0.010106   
H84      H      0.611154500000     0.154755430000     0.818681600000     0.041477   
H85      H      0.528225333333     0.148582900000     0.835976550000     0.055155   
H86      H      0.456516573333     0.170513230000     0.809381200000     0.038396   
H87      H      0.661716100000     0.228083120000     0.784987720000    -0.080389   
H88      H      0.590059220000     0.250117900000     0.758180320000     0.054372   
H89      H      0.599902966667     0.275947750000     0.713025435000     0.026157   
H90      H      0.349027970000     0.281808375000     0.695141820000    -0.01461    
H91      H      0.421561066667     0.262305320000     0.722222910000     0.067816   
H92      H      0.439690633333     0.478402585000     0.840745150000    -2.82176    
H93      H      0.386434296667     0.464035950000     0.799720300000     0.694058   
H94      H      0.633061010000     0.446941585000     0.804282150000     0.231018   
H95      H      0.599023933333     0.445240300000     0.850009400000     5.0033     
H96      H      0.651458133333     0.460458600000     0.891197620000     0.998543   
H97      H      0.458026360000     0.403670600000     0.957233500000     0.21835    
H98      H      0.514452376667     0.357042150000     0.974907370000    -0.403292   
H99      H      0.602010666667     0.358939100000     0.964600350000     0.15689    
H100     H      0.633619900000     0.408274050000     0.937187670000     0.004654   
H101     H      0.577933366667     0.455652120000     0.919967920000     0.835932   
H102     H      0.423382113333     0.096887575000     0.530171575000    -0.341659   
H103     H      0.363983083333     0.108916870000     0.565590200000    -0.054085   
H104     H      0.611036420000     0.122183450000     0.552425265000     0.100191   
H105     H      0.583648033333     0.122367350000     0.503647325000     1.00216    
H106     H      0.642295866667     0.109449595000     0.967987800000     0.165423   
H107     H      0.454512546667     0.172419400000     0.916198450000    -0.876338   
H108     H      0.510792866667     0.221316100000     0.904149150000     0.816528   
H109     H      0.596289456667     0.222836360000     0.923022180000    -1.65973    
H110     H      0.626097733333     0.174675880000     0.953430600000     8.13013    
H111     H      0.570646046667     0.125065200000     0.965104750000    -1.64187    
H112     H      0.453752526667     0.475306350000     0.827726335000     2.74054    
H113     H      0.408789380000     0.322835685000     0.787660600000     0.223715   
H114     H      0.356017293333     0.275695235000     0.764444620000     0.039062   
H115     H      0.599808233333     0.284185530000     0.760000825000     0.191969   
H116     H      0.563142066667     0.340749700000     0.777934370000     1.19097    
H117     H      0.615364710000     0.388262550000     0.801007030000     2.70163    
H118     H      0.598299623333     0.043930410000     0.728173650000     0.075741   
H119     H      0.650582966667     0.091401460000     0.751248800000     0.012171   
H120     H      0.613993066667     0.147994460000     0.769182600000     0.029859   
H121     H      0.524460666667     0.156556070000     0.764735050000     0.05553    
H122     H      0.471629976667     0.109451530000     0.741522700000     0.025257   
H123     H      0.650402900000     0.443260550000     0.761128800000     0.096675   
H124     H      0.622035233333     0.433556850000     0.712932080000    -0.084276   
H125     H      0.666091100000     0.391300800000     0.682699300000    -2.33331    
H126     H      0.405452996667     0.358624370000     0.700729150000     0.072728   
H127     H      0.434412520000     0.368195115000     0.748824640000     0.440579   
H128     H      0.445842356667     0.064143775000     0.780332265000     0.097472   
H129     H      0.474603133333     0.073620320000     0.828472200000     0.009666   
H130     H      0.547154666667     0.040847780000     0.846574600000     0.350469   
H131     H      0.591295223333     0.498613330000     0.816369475000     0.916578   
H132     H      0.563135800000     0.488999900000     0.768133650000     0.974884   
H133     H      0.481831013333     0.453707850000     0.624718020000     1.25545    
H134     H      0.485014100000     0.485241770000     0.893485700000    -0.171261   
H135     H      0.426475593333     0.456981300000     0.701526060000    -0.084631   
C136     C      0.519566276667     0.361879530000     0.898713975000     8.98926    
C137     C      0.365132743333     0.230152200000     0.984650900000     1.11619    
C138     C      0.494046700000     0.348166650000     0.920937120000    -0.259032   
C139     C      0.383886733333     0.263060870000     0.975202450000    -3.57486    
C140     C      0.449913006667     0.328920450000     0.915575625000    -1.6848     
C141     C      0.433598250000     0.265306400000     0.969268250000     3.96116    
C142     C      0.425732006667     0.333747120000     0.890096650000     8.8973     
C143     C      0.464877466667     0.238118900000     0.979308250000    -10.9666    
C144     C      0.445698846667     0.358180000000     0.871116370000    -24.3117    
C145     C      0.445864160000     0.209969685000     0.995610650000     3.70259    
C146     C      0.376389663333     0.314411300000     0.884987150000    -2.7165     
C147     C      0.383417313333     0.274366700000     0.876692350000     1.51813    
C148     C      0.334427070000     0.254879050000     0.871577600000    -1.15272    
C149     C      0.518970100000     0.241548850000     0.973290680000    -5.51934    
C150     C      0.527946800000     0.230980115000     0.943413700000     4.26093    
C151     C      0.582367466667     0.231036560000     0.938251450000    -1.45904    
C152     C      0.409138113333     0.374744175000     0.850899750000     6.21042    
C153     C      0.395325230000     0.349708950000     0.825769215000    -1.01224    
C154     C      0.353047596667     0.365565420000     0.808816950000     2.07499    
C155     C      0.482370966667     0.185086265000     0.509901045000     201.4      
C156     C      0.502711533333     0.156072260000     0.990410950000     44.1929    
C157     C      0.533823333333     0.128576280000     0.505803110000    -9.74687    
C158     C      0.542477290000     0.361146180000     0.862190450000     125.901    
C159     C      0.344599086667     0.378622920000     0.838633550000     7.52782    
C160     C      0.590039990000     0.367330580000     0.853864200000    -44.7745    
C161     C      0.630399033333     0.372419850000     0.846995385000     25.3649    
C162     C      0.437782256667     0.394297630000     0.545405945000    -0.019799   
C163     C      0.445052086667     0.391045350000     0.656989215000     0.038071   
C164     C      0.612907946667     0.438030950000     0.549978735000    -0.555822   
C165     C      0.619338850000     0.416698950000     0.641054465000    -12.7403    
C166     C      0.661448380000     0.437074550000     0.560348390000     1.54801    
C167     C      0.442914800000     0.406221650000     0.630036235000     0.24112    
C168     C      0.574586933333     0.404565125000     0.628804160000     6.0783     
C169     C      0.345401066667     0.406869150000     0.574261195000     0.496878   
C170     C      0.531717676667     0.424319200000     0.632733600000    -2.74895    
C171     C      0.648001133333     0.376760700000     0.576648825000    -0.307439   
C172     C      0.533302883333     0.455163450000     0.650224270000     2.77558    
C173     C      0.599970916667     0.377307000000     0.565900440000     0.090058   
C174     C      0.577532013333     0.466880050000     0.662882390000    -3.64307    
C175     C      0.582101920000     0.408086950000     0.553161885000     0.09725    
C176     C      0.620486466667     0.448162900000     0.657940075000     6.47372    
C177     C      0.397396153333     0.412641375000     0.616737230000     3.70836    
C178     C      0.438315233333     0.405645450000     0.574319265000     0.455252   
C179     C      0.482670923333     0.417510000000     0.588351845000    -0.435349   
C180     C      0.593639533333     0.471575675000     0.536811380000     0.112139   
C181     C      0.618706046667     0.478646350000     0.510437410000    -0.036946   
C182     C      0.665777186667     0.396548780000     0.635837330000     41.0598    
C183     C      0.366008243333     0.418407900000     0.618621715000     12.4903    
C184     C      0.355483786667     0.430128870000     0.631818490000    -12.0791    
C185     C      0.355235990000     0.471246550000     0.628136070000     2.98678    
C186     C      0.648019733333     0.489406350000     0.643698575000    -0.508848   
C187     C      0.523065000000     0.437304650000     0.574013560000     0.010229   
C188     C      0.503872066667     0.472681135000     0.562187965000    -0.087595   
C189     C      0.485788500000     0.414647000000     0.616809600000     0.544759   
C190     C      0.542163253333     0.491009770000     0.545678610000    -0.024558   
C191     C      0.394371836667     0.407950280000     0.588363100000    -1.0514     
C192     C      0.557384946667     0.198499950000     0.572077425000    -8.85481    
C193     C      0.388440623333     0.079425695000     0.666157185000    -0.162072   
C194     C      0.528405050000     0.183018750000     0.591178560000     3.86331    
C195     C      0.423273933333     0.095530080000     0.650597400000     0.123389   
C196     C      0.480254700000     0.172798975000     0.583814720000    -3.19129    
C197     C      0.412739133333     0.100919635000     0.622925185000    -0.026961   
C198     C      0.461501606667     0.178779365000     0.557144360000     2.96172    
C199     C      0.366859826667     0.089861600000     0.611125290000     0.155715   
C200     C      0.492057233333     0.194870785000     0.538525120000     24.2381    
C201     C      0.666001180000     0.073841655000     0.627746910000    -0.140264   
C202     C      0.449849966667     0.155574560000     0.604259430000     0.952606   
C203     C      0.449951433333     0.118738225000     0.606558050000    -0.231616   
C204     C      0.490579366667     0.059698375000     0.599720950000    -0.100974   
C205     C      0.427655390000     0.216356800000     0.622242510000     0.112019   
C206     C      0.642281866667     0.028285540000     0.704491735000     0.065116   
C207     C      0.568788233333     0.094383390000     0.656267240000     0.411585   
C208     C      0.616486650000     0.051484950000     0.687565625000    -0.00061    
C209     C      0.594590200000     0.071177930000     0.673197790000    -0.150734   
C210     C      0.431572060000     0.171025290000     0.682072775000     0.257916   
C211     C      0.448688066667     0.263909070000     0.850007685000     1.72546    
C212     C      0.438954680000     0.252249630000     0.822413920000    -1.49174    
C213     C      0.441017686667     0.182301910000     0.709737570000    -0.074654   
C214     C      0.423600633333     0.229006710000     0.771427750000    -0.291506   
C215     C      0.455710183333     0.205086450000     0.760828200000     0.093985   
C216     C      0.448523093333     0.192087665000     0.733043360000     0.007816   
C217     C      0.431112876667     0.242187260000     0.799177885000     0.667758   
C218     C      0.498551816667     0.190910175000     0.776880325000    -0.0343     
C219     C      0.545652066667     0.193684430000     0.767009950000    -0.047292   
C220     C      0.586047253333     0.180588035000     0.782037885000    -0.033639   
C221     C      0.579819480000     0.164626730000     0.806991900000    -0.036156   
C222     C      0.533084253333     0.161189950000     0.816757680000    -0.024432   
C223     C      0.492550300000     0.173912915000     0.801693800000    -0.036201   
C224     C      0.380396620000     0.242788750000     0.755399450000     0.046484   
C225     C      0.333469806667     0.240015075000     0.765506685000     0.110918   
C226     C      0.626030086667     0.252174850000     0.750301000000    -0.156446   
C227     C      0.631585616667     0.266948400000     0.724872250000    -0.11525    
C228     C      0.344742193333     0.270319285000     0.714823000000    -0.014302   
C229     C      0.385730743333     0.258859900000     0.730147660000    -0.043317   
C230     C      0.350253900000     0.200535820000     0.526511140000     0.000652   
C231     C      0.591323633333     0.211342275000     0.519840255000    -12.2852    
C232     C      0.633663553333     0.206363950000     0.522916585000     5.08432    
C233     C      0.541399576667     0.217167150000     0.516243525000     26.0096    
C234     C      0.437651673333     0.159349485000     0.982658200000     46.8753    
C235     C      0.476474683333     0.082328675000     0.936666100000    -3.31246    
C236     C      0.412928513333     0.011832385000     0.906844600000     16.8364    
C237     C      0.478435800000     0.494557380000     0.938798850000     4.44516    
C238     C      0.450151810000     0.416156200000     0.889505180000    -0.898978   
C239     C      0.407767206667     0.062332115000     0.961942525000    -2.69133    
C240     C      0.474745333333     0.116593500000     0.949411550000     7.30308    
C241     C      0.414691006667     0.477961800000     0.893493850000    -32.6068    
C242     C      0.480169386667     0.460283130000     0.926068300000    -4.89494    
C243     C      0.406003633333     0.096189945000     0.975312770000     5.73071    
C244     C      0.439488440000     0.123623730000     0.968967100000    -15.3419    
C245     C      0.448315566667     0.451888325000     0.903186530000     11.7579    
C246     C      0.442980333333     0.055518475000     0.942860125000     2.9808     
C247     C      0.444815576667     0.020010875000     0.929259030000    -3.99365    
C248     C      0.508774676667     0.145098250000     0.941294850000    -3.89801    
C249     C      0.492042820000     0.172499580000     0.924156800000     2.93538    
C250     C      0.523718033333     0.200287475000     0.917431830000    -2.69483    
C251     C      0.571969300000     0.201113565000     0.928036185000     3.11364    
C252     C      0.588795500000     0.173910470000     0.945132165000    -4.75463    
C253     C      0.557411300000     0.145822465000     0.951639475000     4.82446    
C254     C      0.382506543333     0.470788900000     0.868850530000    -19.4162    
C255     C      0.401629110000     0.471592100000     0.842916100000     8.77134    
C256     C      0.371665443333     0.463287175000     0.819692900000    -3.59226    
C257     C      0.656065783333     0.453707575000     0.822261500000     2.71276    
C258     C      0.636854600000     0.452828400000     0.848042725000    -0.207852   
C259     C      0.666542200000     0.461557030000     0.871301450000    -2.43291    
C260     C      0.514126866667     0.433150680000     0.937577220000     1.89114    
C261     C      0.496392676667     0.405093075000     0.953034450000    -0.672218   
C262     C      0.528165833333     0.378581525000     0.962925800000     1.21667    
C263     C      0.577571966667     0.379683800000     0.957154275000    -0.044241   
C264     C      0.595408600000     0.407548300000     0.941747220000    -0.234749   
C265     C      0.563873633333     0.434373400000     0.932102700000    -0.45902    
C266     C      0.370225696667     0.101975750000     0.996581675000    -1.80767    
C267     C      0.385567526667     0.102021740000     0.524226310000    -1.57701    
C268     C      0.352113490000     0.109008775000     0.544292865000     0.635204   
C269     C      0.636760066667     0.116427550000     0.536868690000    -0.039788   
C270     C      0.621305146667     0.116453355000     0.509367345000    -0.747818   
C271     C      0.654505666667     0.109030835000     0.989240700000     0.662751   
C272     C      0.395135143333     0.412492900000     0.787190400000     3.61654    
C273     C      0.457631066667     0.488451600000     0.734553175000     0.265478   
C274     C      0.422633133333     0.443854950000     0.794656575000     0.994255   
C275     C      0.445788760000     0.481986100000     0.707167240000     0.076918   
C276     C      0.434482500000     0.450300650000     0.822049050000     0.922903   
C277     C      0.459536423333     0.005722700000     0.687002400000    -1.77938    
C278     C      0.420763266667     0.426543450000     0.842176615000     5.76569    
C279     C      0.348835153333     0.357771400000     0.798020850000     0.841227   
C280     C      0.369579616667     0.326455770000     0.786446750000     0.49193    
C281     C      0.339864356667     0.299867450000     0.773072570000     0.015731   
C282     C      0.622742766667     0.304722050000     0.770455630000    -0.508435   
C283     C      0.602045753333     0.336495520000     0.780734050000     1.27596    
C284     C      0.631642200000     0.363137100000     0.794114830000    -1.28225    
C285     C      0.531534313333     0.074473320000     0.731160450000    -0.02001    
C286     C      0.582049986667     0.069068670000     0.735066115000    -0.049896   
C287     C      0.611683400000     0.095690070000     0.748448415000    -0.01663    
C288     C      0.591027366667     0.127477585000     0.758727700000    -0.035341   
C289     C      0.540583066667     0.132371070000     0.756111115000    -0.024596   
C290     C      0.510836523333     0.105802415000     0.742736850000    -0.045775   
C291     C      0.377517163333     0.406196685000     0.758400680000    -1.18761    
C292     C      0.336456226667     0.424684880000     0.748083370000    -0.417808   
C293     C      0.653696966667     0.419251470000     0.720842100000     0.592281   
C294     C      0.345199143333     0.395418850000     0.703796750000     1.50147    
C295     C      0.386175776667     0.376988300000     0.713964015000    -0.85254    
C296     C      0.402410103333     0.382371550000     0.741184235000     0.813077   
C297     C      0.502730886667     0.026117145000     0.770804300000     0.587513   
C298     C      0.477801013333     0.049939035000     0.788004850000    -0.273838   
C299     C      0.493921586667     0.055270135000     0.815248070000     0.204943   
C300     C      0.534818666667     0.036782800000     0.825456950000     0.022681   
C301     C      0.559698423333     0.012963355000     0.808428050000     0.689646   
C302     C      0.543727080000     0.007584035000     0.781162920000    -0.869979   
C303     C      0.499472540000     0.043757615000     0.721502170000     0.020992   
C304     C      0.380857273333     0.388507600000     0.807681800000    -14.3958    
C305     C      0.485155193333     0.019800365000     0.742007630000    -0.271328   
S306     S      0.640044533333     0.216545835000     0.970138450000     3.10729    
S307     S      0.584877233333     0.362835500000     0.904177800000    -4.84362    
S308     S      0.348166106667     0.302887230000     0.978465950000     8.84305    
S309     S      0.511353166667     0.362757100000     0.955040125000     0.050881   
S310     S      0.444780120000     0.488457350000     0.653206020000     2.17637    
S311     S      0.435750056667     0.443774225000     0.875910135000    -1.00093    
N312     N      0.494507950000     0.370036700000     0.874160650000    -26.0573    
N313     N      0.395521540000     0.205984665000     0.998158425000     1.9714     
N314     N      0.427586466667     0.304957120000     0.934414100000     0.24776    
N315     N      0.454404760000     0.293540050000     0.953526250000    -0.823809   
N316     N      0.539256156667     0.204084000000     0.546348530000     16.8532    
N317     N      0.344344140000     0.068768130000     0.654650400000     0.08211    
N318     N      0.619595786667     0.061876170000     0.616311370000     0.007361   
N319     N      0.472825356667     0.203038650000     0.511913040000    -177.444    
N320     N      0.482807180000     0.096560770000     0.591428375000    -0.078326   
N321     N      0.417577766667     0.177800850000     0.619761735000    -0.379861   
N322     N      0.412519520000     0.167855010000     0.548704880000     0.77124    
N323     N      0.355091090000     0.094546395000     0.582665650000    -0.007862   
N324     N      0.486696273333     0.037083985000     0.693977015000    -0.017603   
N325     N      0.393645143333     0.395163925000     0.835206900000     1.27694    
N326     N      0.445597876667     0.460678550000     0.752987450000     0.258693   
N327     N      0.434663493333     0.471636150000     0.776228000000     0.134367   
O328     O      0.603647233333     0.212549580000     0.991701425000    -3.81482    
O329     O      0.620861966667     0.243713930000     0.950301470000    -1.1237     
O330     O      0.645880700000     0.177077530000     0.952537715000    -7.70272    
O331     O      0.600549500000     0.396881730000     0.919858050000     1.38787    
O332     O      0.599542333333     0.331009300000     0.920894325000     1.8909     
O333     O      0.616552233333     0.360005470000     0.876053200000     7.93372    
O334     O      0.664164780000     0.315432875000     0.951002775000    -6.16877    
O335     O      0.637717300000     0.295745430000     0.994792800000    -2.03775    
O336     O      0.381596053333     0.336017670000     0.994595530000    -1.03231    
O337     O      0.547835700000     0.337115170000     0.967340750000    -0.617669   
O338     O      0.533144333333     0.400201950000     0.955551030000    -0.937453   
O339     O      0.462185273333     0.364508330000     0.974040950000    -0.285341   
O340     O      0.536929133333     0.336807280000     0.880348325000    -37.6797    
O341     O      0.350102343333     0.402809085000     0.820345225000    -2.44612    
O342     O      0.380034606667     0.359259550000     0.849079430000    -1.32204    
O343     O      0.506996890000     0.380356820000     0.851614100000    -346.065    
O344     O      0.478156240000     0.391285030000     0.533767720000    -0.375151   
O345     O      0.405626640000     0.379722265000     0.666769775000     1.38296    
O346     O      0.397406576667     0.387457700000     0.531912875000    -0.238782   
O347     O      0.486376333333     0.383549570000     0.668624600000    -0.269943   
O348     O      0.616196166667     0.031168905000     0.602592355000    -0.198325   
O349     O      0.583837350000     0.084770560000     0.614450950000    -0.089483   
O350     O      0.434311786667     0.223226025000     0.509082470000     19.361     
O351     O      0.490309900000     0.187217310000     0.990549900000     65.6328    
O352     O      0.403956340000     0.149924530000     0.525724990000     3.71113    
O353     O      0.376043383333     0.177029950000     0.563349030000    -0.439875   
O354     O      0.646752180000     0.108240330000     0.574713090000    -0.209897   
O355     O      0.385405546667     0.084191075000     0.564476130000    -0.193066   
O356     O      0.618389386667     0.005887960000     0.718022020000    -0.377796   
O357     O      0.592680700000     0.116780975000     0.642736940000    -0.210577   
O358     O      0.522234366667     0.092366750000     0.654927760000    -0.504567   
O359     O      0.355502366667     0.030302180000     0.705831230000    -0.493905   
O360     O      0.464638043333     0.152653010000     0.670052590000    -0.181258   
O361     O      0.415701910000     0.282401500000     0.862014600000    -10.2517    
O362     O      0.390335400000     0.179195540000     0.669942200000    -0.227444   
O363     O      0.490004550000     0.255859000000     0.862125000000    -0.4944     
O364     O      0.378901800000     0.218187870000     0.511289665000    -6.36919    
O365     O      0.364643453333     0.177889260000     0.544825030000    -0.831551   
O366     O      0.527018110000     0.239810650000     0.997917350000     60.3733    
O367     O      0.512754566667     0.199497300000     0.531464985000    -62.916     
O368     O      0.477928310000     0.175510375000     0.990561300000    -112.12     
O369     O      0.409874956667     0.399993200000     0.881605350000     1.55149    
O370     O      0.492004056667     0.401663800000     0.885666250000     20.6793    
O371     O      0.395799213333     0.173839750000     0.986500400000    -13.1326    
O372     O      0.402552266667     0.462306400000     0.653624800000    -0.373177   
O373     O      0.430902680000     0.016861615000     0.633326950000    -0.448934   
O374     O      0.493230323333     0.465396350000     0.642328665000    -4.2129     
O375     O      0.392634386667     0.464367900000     0.885904430000     30.4748    
O376     O      0.450074100000     0.415396870000     0.895722030000    -5.42361    
O377     O      0.483054120000     0.472977150000     0.875242850000     4.15575    
F378     F      0.510040423333     0.075249970000     0.917773950000     0.199233   
F379     F      0.380919200000     0.037170930000     0.897690500000    -3.27043    
F380     F      0.508707483333     0.002934550000     0.960861750000    -1.96342    
F381     F      0.375934716667     0.035696550000     0.967916130000     0.164949   
Zn0      Zn     0.467655113333     0.585275920000     0.163212240000     1.61648    
Zn1      Zn     0.406443556667     0.536131535000     0.196521450000     1.23312    
Cu2      Cu     0.494653116667     0.709583100000     0.023929905000     86.6219    
Cu3      Cu     0.393965940000     0.707324625000     0.019156590000     2.62446    
Cu4      Cu     0.492341646667     0.872567350000     0.353000375000     268.169    
Cu5      Cu     0.392836223333     0.867586730000     0.347184800000    -2.23077    
H6       H      0.613255100000     0.672182290000     0.443581750000    -0.870692   
H7       H      0.651237786667     0.862625450000     0.382477015000    -3.65138    
H8       H      0.391090030000     0.826338680000     0.012607335000    -0.413114   
H9       H      0.475254693333     0.870614170000     0.492767780000    -0.046142   
H10      H      0.646717300000     0.755992550000     0.390318650000     0.053457   
H11      H      0.646193286667     0.767582475000     0.354795550000     0.350159   
H12      H      0.340684196667     0.726036580000     0.365729330000     0.219907   
H13      H      0.404277056667     0.772213100000     0.357917800000     7.4584     
H14      H      0.404598793333     0.760380150000     0.392995300000    -0.124264   
H15      H      0.355405796667     0.816258670000     0.403611125000     0.472245   
H16      H      0.351509453333     0.827201275000     0.369961750000     0.393419   
H17      H      0.598462243333     0.758309000000     0.443111300000     0.949423   
H18      H      0.601603166667     0.710745035000     0.450931450000     0.445026   
H19      H      0.587640286667     0.723977060000     0.416497530000     1.47592    
H20      H      0.512549766667     0.703608530000     0.438139470000    -0.761785   
H21      H      0.509726400000     0.750226450000     0.429460615000    -0.644198   
H22      H      0.531352700000     0.769888950000     0.477730650000    -3.97614    
H23      H      0.543458233333     0.725677090000     0.486648830000    -40.0403    
H24      H      0.653091350000     0.866821080000     0.320798665000    -6.49212    
H25      H      0.362347563333     0.893293830000     0.302593600000     9.38741    
H26      H      0.345102160000     0.848118275000     0.290283650000    -1.12629    
H27      H      0.426674406667     0.844989270000     0.312886250000     0.128867   
H28      H      0.384402613333     0.822277050000     0.331415650000     0.120218   
H29      H      0.375640930000     0.881739170000     0.361716450000    -2.25354    
H30      H      0.420348333333     0.901826920000     0.344901850000    -3.06993    
H31      H      0.566327433333     0.642231050000     0.015996815000     0.959394   
H32      H      0.512478600000     0.615438230000     0.021386445000    -0.595424   
H33      H      0.546360453333     0.607300365000     0.491301500000    -1.43481    
H34      H      0.472140566667     0.642055110000     0.478844435000    -8.29063    
H35      H      0.525825766667     0.668154120000     0.475303770000    -17.8808    
H36      H      0.512379943333     0.701255470000     0.020360350000    -59.7131    
H37      H      0.467288300000     0.671471925000     0.026871680000    -48.4511    
H38      H      0.544288713333     0.908463420000     0.045761105000    -0.059299   
H39      H      0.578698333333     0.990957350000     0.176082450000     1.03532    
H40      H      0.657682700000     0.985644130000     0.014733140000     0.037932   
H41      H      0.616573566667     0.954649100000     0.496417730000     0.053457   
H42      H      0.600362320000     0.501211820000     0.499895800000     0.045672   
H43      H      0.553624566667     0.969257830000     0.032276570000     0.029638   
H44      H      0.599915333333     0.995042500000     0.051305275000     0.011088   
H45      H      0.654727500000     0.958323550000     0.167120665000    -2.16969    
H46      H      0.347462973333     0.923964000000     0.098631730000    -3.11845    
H47      H      0.376808443333     0.944453450000     0.129246710000     2.06497    
H48      H      0.399569433333     0.902685285000     0.115079125000    -5.54135    
H49      H      0.351817053333     0.890711070000     0.155508350000    -23.605     
H50      H      0.657583076667     0.870095500000     0.125057830000    -2.29134    
H51      H      0.611838000000     0.978139700000     0.136465965000     0.215718   
H52      H      0.653720280000     0.985157500000     0.165855050000     0.482424   
H53      H      0.648407066667     0.518990695000     0.140350625000     0.026621   
H54      H      0.390941673333     0.983011800000     0.135812200000    -0.995266   
H55      H      0.349992606667     0.977452950000     0.106331200000    -0.802203   
H56      H      0.653151016667     0.917947680000     0.124698200000    -6.65864    
H57      H      0.358430916667     0.926556250000     0.153996950000    -1.10608    
H58      H      0.552823066667     0.972797575000     0.028576605000     0.009015   
H59      H      0.526936766667     0.516256390000     0.037171595000    -0.037688   
H60      H      0.575114100000     0.998089375000     0.058858925000     0.096223   
H61      H      0.470499526667     0.967425250000     0.049076650000     0.063443   
H62      H      0.493891606667     0.991493950000     0.079118340000     0.083896   
H63      H      0.554328920000     0.945377500000     0.087980420000     0.165295   
H64      H      0.540048083333     0.919779420000     0.058514140000     0.051871   
H65      H      0.351933146667     0.960304900000     0.058497360000    -0.092381   
H66      H      0.573283353333     0.880764500000     0.115273880000    -1.85027    
H67      H      0.660992633333     0.853260575000     0.087330930000     0.301968   
H68      H      0.500519950000     0.970631720000     0.153456760000     2.13578    
H69      H      0.576260700000     0.854118800000     0.067928440000    -0.332121   
H70      H      0.594567700000     0.706429350000     0.077893225000     1.84163    
H71      H      0.396647586667     0.575360360000     0.187547625000    -0.165138   
H72      H      0.458194700000     0.603915550000     0.160070000000    -1.01966    
H73      H      0.543499986667     0.678786800000     0.111565850000    -1.00775    
H74      H      0.514119966667     0.608949200000     0.085466815000     0.101779   
H75      H      0.516029756667     0.545942635000     0.085915780000     0.03156    
H76      H      0.455671756667     0.544184280000     0.098387650000     0.046008   
H77      H      0.506829580000     0.559661470000     0.120848545000     0.057728   
H78      H      0.405707220000     0.667242840000     0.137414115000     0.165741   
H79      H      0.399422366667     0.729821325000     0.134381560000    -0.091354   
H80      H      0.426437446667     0.728485270000     0.101879560000    -0.568014   
H81      H      0.464003950000     0.721361580000     0.132716375000    -0.14841    
H82      H      0.551158000000     0.706345600000     0.247845365000     0.040387   
H83      H      0.622245100000     0.682966550000     0.274397880000     0.010106   
H84      H      0.611154500000     0.654755430000     0.318681600000     0.041477   
H85      H      0.528225333333     0.648582900000     0.335976550000     0.055155   
H86      H      0.456516573333     0.670513230000     0.309381200000     0.038396   
H87      H      0.661716100000     0.728083120000     0.284987720000    -0.080389   
H88      H      0.590059220000     0.750117900000     0.258180320000     0.054372   
H89      H      0.599902966667     0.775947750000     0.213025435000     0.026157   
H90      H      0.349027970000     0.781808375000     0.195141820000    -0.01461    
H91      H      0.421561066667     0.762305320000     0.222222910000     0.067816   
H92      H      0.439690633333     0.978402585000     0.340745150000    -2.82176    
H93      H      0.386434296667     0.964035950000     0.299720300000     0.694058   
H94      H      0.633061010000     0.946941585000     0.304282150000     0.231018   
H95      H      0.599023933333     0.945240300000     0.350009400000     5.0033     
H96      H      0.651458133333     0.960458600000     0.391197620000     0.998543   
H97      H      0.458026360000     0.903670600000     0.457233500000     0.21835    
H98      H      0.514452376667     0.857042150000     0.474907370000    -0.403292   
H99      H      0.602010666667     0.858939100000     0.464600350000     0.15689    
H100     H      0.633619900000     0.908274050000     0.437187670000     0.004654   
H101     H      0.577933366667     0.955652120000     0.419967920000     0.835932   
H102     H      0.423382113333     0.596887575000     0.030171575000    -0.341659   
H103     H      0.363983083333     0.608916870000     0.065590200000    -0.054085   
H104     H      0.611036420000     0.622183450000     0.052425265000     0.100191   
H105     H      0.583648033333     0.622367350000     0.003647325000     1.00216    
H106     H      0.642295866667     0.609449595000     0.467987800000     0.165423   
H107     H      0.454512546667     0.672419400000     0.416198450000    -0.876338   
H108     H      0.510792866667     0.721316100000     0.404149150000     0.816528   
H109     H      0.596289456667     0.722836360000     0.423022180000    -1.65973    
H110     H      0.626097733333     0.674675880000     0.453430600000     8.13013    
H111     H      0.570646046667     0.625065200000     0.465104750000    -1.64187    
H112     H      0.453752526667     0.975306350000     0.327726335000     2.74054    
H113     H      0.408789380000     0.822835685000     0.287660600000     0.223715   
H114     H      0.356017293333     0.775695235000     0.264444620000     0.039062   
H115     H      0.599808233333     0.784185530000     0.260000825000     0.191969   
H116     H      0.563142066667     0.840749700000     0.277934370000     1.19097    
H117     H      0.615364710000     0.888262550000     0.301007030000     2.70163    
H118     H      0.598299623333     0.543930410000     0.228173650000     0.075741   
H119     H      0.650582966667     0.591401460000     0.251248800000     0.012171   
H120     H      0.613993066667     0.647994460000     0.269182600000     0.029859   
H121     H      0.524460666667     0.656556070000     0.264735050000     0.05553    
H122     H      0.471629976667     0.609451530000     0.241522700000     0.025257   
H123     H      0.650402900000     0.943260550000     0.261128800000     0.096675   
H124     H      0.622035233333     0.933556850000     0.212932080000    -0.084276   
H125     H      0.666091100000     0.891300800000     0.182699300000    -2.33331    
H126     H      0.405452996667     0.858624370000     0.200729150000     0.072728   
H127     H      0.434412520000     0.868195115000     0.248824640000     0.440579   
H128     H      0.445842356667     0.564143775000     0.280332265000     0.097472   
H129     H      0.474603133333     0.573620320000     0.328472200000     0.009666   
H130     H      0.547154666667     0.540847780000     0.346574600000     0.350469   
H131     H      0.591295223333     0.998613330000     0.316369475000     0.916578   
H132     H      0.563135800000     0.988999900000     0.268133650000     0.974884   
H133     H      0.481831013333     0.953707850000     0.124718020000     1.25545    
H134     H      0.485014100000     0.985241770000     0.393485700000    -0.171261   
H135     H      0.426475593333     0.956981300000     0.201526060000    -0.084631   
C136     C      0.519566276667     0.861879530000     0.398713975000     8.98926    
C137     C      0.365132743333     0.730152200000     0.484650900000     1.11619    
C138     C      0.494046700000     0.848166650000     0.420937120000    -0.259032   
C139     C      0.383886733333     0.763060870000     0.475202450000    -3.57486    
C140     C      0.449913006667     0.828920450000     0.415575625000    -1.6848     
C141     C      0.433598250000     0.765306400000     0.469268250000     3.96116    
C142     C      0.425732006667     0.833747120000     0.390096650000     8.8973     
C143     C      0.464877466667     0.738118900000     0.479308250000    -10.9666    
C144     C      0.445698846667     0.858180000000     0.371116370000    -24.3117    
C145     C      0.445864160000     0.709969685000     0.495610650000     3.70259    
C146     C      0.376389663333     0.814411300000     0.384987150000    -2.7165     
C147     C      0.383417313333     0.774366700000     0.376692350000     1.51813    
C148     C      0.334427070000     0.754879050000     0.371577600000    -1.15272    
C149     C      0.518970100000     0.741548850000     0.473290680000    -5.51934    
C150     C      0.527946800000     0.730980115000     0.443413700000     4.26093    
C151     C      0.582367466667     0.731036560000     0.438251450000    -1.45904    
C152     C      0.409138113333     0.874744175000     0.350899750000     6.21042    
C153     C      0.395325230000     0.849708950000     0.325769215000    -1.01224    
C154     C      0.353047596667     0.865565420000     0.308816950000     2.07499    
C155     C      0.482370966667     0.685086265000     0.009901045000     201.4      
C156     C      0.502711533333     0.656072260000     0.490410950000     44.1929    
C157     C      0.533823333333     0.628576280000     0.005803110000    -9.74687    
C158     C      0.542477290000     0.861146180000     0.362190450000     125.901    
C159     C      0.344599086667     0.878622920000     0.338633550000     7.52782    
C160     C      0.590039990000     0.867330580000     0.353864200000    -44.7745    
C161     C      0.630399033333     0.872419850000     0.346995385000     25.3649    
C162     C      0.437782256667     0.894297630000     0.045405945000    -0.019799   
C163     C      0.445052086667     0.891045350000     0.156989215000     0.038071   
C164     C      0.612907946667     0.938030950000     0.049978735000    -0.555822   
C165     C      0.619338850000     0.916698950000     0.141054465000    -12.7403    
C166     C      0.661448380000     0.937074550000     0.060348390000     1.54801    
C167     C      0.442914800000     0.906221650000     0.130036235000     0.24112    
C168     C      0.574586933333     0.904565125000     0.128804160000     6.0783     
C169     C      0.345401066667     0.906869150000     0.074261195000     0.496878   
C170     C      0.531717676667     0.924319200000     0.132733600000    -2.74895    
C171     C      0.648001133333     0.876760700000     0.076648825000    -0.307439   
C172     C      0.533302883333     0.955163450000     0.150224270000     2.77558    
C173     C      0.599970916667     0.877307000000     0.065900440000     0.090058   
C174     C      0.577532013333     0.966880050000     0.162882390000    -3.64307    
C175     C      0.582101920000     0.908086950000     0.053161885000     0.09725    
C176     C      0.620486466667     0.948162900000     0.157940075000     6.47372    
C177     C      0.397396153333     0.912641375000     0.116737230000     3.70836    
C178     C      0.438315233333     0.905645450000     0.074319265000     0.455252   
C179     C      0.482670923333     0.917510000000     0.088351845000    -0.435349   
C180     C      0.593639533333     0.971575675000     0.036811380000     0.112139   
C181     C      0.618706046667     0.978646350000     0.010437410000    -0.036946   
C182     C      0.665777186667     0.896548780000     0.135837330000     41.0598    
C183     C      0.366008243333     0.918407900000     0.118621715000     12.4903    
C184     C      0.355483786667     0.930128870000     0.131818490000    -12.0791    
C185     C      0.355235990000     0.971246550000     0.128136070000     2.98678    
C186     C      0.648019733333     0.989406350000     0.143698575000    -0.508848   
C187     C      0.523065000000     0.937304650000     0.074013560000     0.010229   
C188     C      0.503872066667     0.972681135000     0.062187965000    -0.087595   
C189     C      0.485788500000     0.914647000000     0.116809600000     0.544759   
C190     C      0.542163253333     0.991009770000     0.045678610000    -0.024558   
C191     C      0.394371836667     0.907950280000     0.088363100000    -1.0514     
C192     C      0.557384946667     0.698499950000     0.072077425000    -8.85481    
C193     C      0.388440623333     0.579425695000     0.166157185000    -0.162072   
C194     C      0.528405050000     0.683018750000     0.091178560000     3.86331    
C195     C      0.423273933333     0.595530080000     0.150597400000     0.123389   
C196     C      0.480254700000     0.672798975000     0.083814720000    -3.19129    
C197     C      0.412739133333     0.600919635000     0.122925185000    -0.026961   
C198     C      0.461501606667     0.678779365000     0.057144360000     2.96172    
C199     C      0.366859826667     0.589861600000     0.111125290000     0.155715   
C200     C      0.492057233333     0.694870785000     0.038525120000     24.2381    
C201     C      0.666001180000     0.573841655000     0.127746910000    -0.140264   
C202     C      0.449849966667     0.655574560000     0.104259430000     0.952606   
C203     C      0.449951433333     0.618738225000     0.106558050000    -0.231616   
C204     C      0.490579366667     0.559698375000     0.099720950000    -0.100974   
C205     C      0.427655390000     0.716356800000     0.122242510000     0.112019   
C206     C      0.642281866667     0.528285540000     0.204491735000     0.065116   
C207     C      0.568788233333     0.594383390000     0.156267240000     0.411585   
C208     C      0.616486650000     0.551484950000     0.187565625000    -0.00061    
C209     C      0.594590200000     0.571177930000     0.173197790000    -0.150734   
C210     C      0.431572060000     0.671025290000     0.182072775000     0.257916   
C211     C      0.448688066667     0.763909070000     0.350007685000     1.72546    
C212     C      0.438954680000     0.752249630000     0.322413920000    -1.49174    
C213     C      0.441017686667     0.682301910000     0.209737570000    -0.074654   
C214     C      0.423600633333     0.729006710000     0.271427750000    -0.291506   
C215     C      0.455710183333     0.705086450000     0.260828200000     0.093985   
C216     C      0.448523093333     0.692087665000     0.233043360000     0.007816   
C217     C      0.431112876667     0.742187260000     0.299177885000     0.667758   
C218     C      0.498551816667     0.690910175000     0.276880325000    -0.0343     
C219     C      0.545652066667     0.693684430000     0.267009950000    -0.047292   
C220     C      0.586047253333     0.680588035000     0.282037885000    -0.033639   
C221     C      0.579819480000     0.664626730000     0.306991900000    -0.036156   
C222     C      0.533084253333     0.661189950000     0.316757680000    -0.024432   
C223     C      0.492550300000     0.673912915000     0.301693800000    -0.036201   
C224     C      0.380396620000     0.742788750000     0.255399450000     0.046484   
C225     C      0.333469806667     0.740015075000     0.265506685000     0.110918   
C226     C      0.626030086667     0.752174850000     0.250301000000    -0.156446   
C227     C      0.631585616667     0.766948400000     0.224872250000    -0.11525    
C228     C      0.344742193333     0.770319285000     0.214823000000    -0.014302   
C229     C      0.385730743333     0.758859900000     0.230147660000    -0.043317   
C230     C      0.350253900000     0.700535820000     0.026511140000     0.000652   
C231     C      0.591323633333     0.711342275000     0.019840255000    -12.2852    
C232     C      0.633663553333     0.706363950000     0.022916585000     5.08432    
C233     C      0.541399576667     0.717167150000     0.016243525000     26.0096    
C234     C      0.437651673333     0.659349485000     0.482658200000     46.8753    
C235     C      0.476474683333     0.582328675000     0.436666100000    -3.31246    
C236     C      0.412928513333     0.511832385000     0.406844600000     16.8364    
C237     C      0.478435800000     0.994557380000     0.438798850000     4.44516    
C238     C      0.450151810000     0.916156200000     0.389505180000    -0.898978   
C239     C      0.407767206667     0.562332115000     0.461942525000    -2.69133    
C240     C      0.474745333333     0.616593500000     0.449411550000     7.30308    
C241     C      0.414691006667     0.977961800000     0.393493850000    -32.6068    
C242     C      0.480169386667     0.960283130000     0.426068300000    -4.89494    
C243     C      0.406003633333     0.596189945000     0.475312770000     5.73071    
C244     C      0.439488440000     0.623623730000     0.468967100000    -15.3419    
C245     C      0.448315566667     0.951888325000     0.403186530000     11.7579    
C246     C      0.442980333333     0.555518475000     0.442860125000     2.9808     
C247     C      0.444815576667     0.520010875000     0.429259030000    -3.99365    
C248     C      0.508774676667     0.645098250000     0.441294850000    -3.89801    
C249     C      0.492042820000     0.672499580000     0.424156800000     2.93538    
C250     C      0.523718033333     0.700287475000     0.417431830000    -2.69483    
C251     C      0.571969300000     0.701113565000     0.428036185000     3.11364    
C252     C      0.588795500000     0.673910470000     0.445132165000    -4.75463    
C253     C      0.557411300000     0.645822465000     0.451639475000     4.82446    
C254     C      0.382506543333     0.970788900000     0.368850530000    -19.4162    
C255     C      0.401629110000     0.971592100000     0.342916100000     8.77134    
C256     C      0.371665443333     0.963287175000     0.319692900000    -3.59226    
C257     C      0.656065783333     0.953707575000     0.322261500000     2.71276    
C258     C      0.636854600000     0.952828400000     0.348042725000    -0.207852   
C259     C      0.666542200000     0.961557030000     0.371301450000    -2.43291    
C260     C      0.514126866667     0.933150680000     0.437577220000     1.89114    
C261     C      0.496392676667     0.905093075000     0.453034450000    -0.672218   
C262     C      0.528165833333     0.878581525000     0.462925800000     1.21667    
C263     C      0.577571966667     0.879683800000     0.457154275000    -0.044241   
C264     C      0.595408600000     0.907548300000     0.441747220000    -0.234749   
C265     C      0.563873633333     0.934373400000     0.432102700000    -0.45902    
C266     C      0.370225696667     0.601975750000     0.496581675000    -1.80767    
C267     C      0.385567526667     0.602021740000     0.024226310000    -1.57701    
C268     C      0.352113490000     0.609008775000     0.044292865000     0.635204   
C269     C      0.636760066667     0.616427550000     0.036868690000    -0.039788   
C270     C      0.621305146667     0.616453355000     0.009367345000    -0.747818   
C271     C      0.654505666667     0.609030835000     0.489240700000     0.662751   
C272     C      0.395135143333     0.912492900000     0.287190400000     3.61654    
C273     C      0.457631066667     0.988451600000     0.234553175000     0.265478   
C274     C      0.422633133333     0.943854950000     0.294656575000     0.994255   
C275     C      0.445788760000     0.981986100000     0.207167240000     0.076918   
C276     C      0.434482500000     0.950300650000     0.322049050000     0.922903   
C277     C      0.459536423333     0.505722700000     0.187002400000    -1.77938    
C278     C      0.420763266667     0.926543450000     0.342176615000     5.76569    
C279     C      0.348835153333     0.857771400000     0.298020850000     0.841227   
C280     C      0.369579616667     0.826455770000     0.286446750000     0.49193    
C281     C      0.339864356667     0.799867450000     0.273072570000     0.015731   
C282     C      0.622742766667     0.804722050000     0.270455630000    -0.508435   
C283     C      0.602045753333     0.836495520000     0.280734050000     1.27596    
C284     C      0.631642200000     0.863137100000     0.294114830000    -1.28225    
C285     C      0.531534313333     0.574473320000     0.231160450000    -0.02001    
C286     C      0.582049986667     0.569068670000     0.235066115000    -0.049896   
C287     C      0.611683400000     0.595690070000     0.248448415000    -0.01663    
C288     C      0.591027366667     0.627477585000     0.258727700000    -0.035341   
C289     C      0.540583066667     0.632371070000     0.256111115000    -0.024596   
C290     C      0.510836523333     0.605802415000     0.242736850000    -0.045775   
C291     C      0.377517163333     0.906196685000     0.258400680000    -1.18761    
C292     C      0.336456226667     0.924684880000     0.248083370000    -0.417808   
C293     C      0.653696966667     0.919251470000     0.220842100000     0.592281   
C294     C      0.345199143333     0.895418850000     0.203796750000     1.50147    
C295     C      0.386175776667     0.876988300000     0.213964015000    -0.85254    
C296     C      0.402410103333     0.882371550000     0.241184235000     0.813077   
C297     C      0.502730886667     0.526117145000     0.270804300000     0.587513   
C298     C      0.477801013333     0.549939035000     0.288004850000    -0.273838   
C299     C      0.493921586667     0.555270135000     0.315248070000     0.204943   
C300     C      0.534818666667     0.536782800000     0.325456950000     0.022681   
C301     C      0.559698423333     0.512963355000     0.308428050000     0.689646   
C302     C      0.543727080000     0.507584035000     0.281162920000    -0.869979   
C303     C      0.499472540000     0.543757615000     0.221502170000     0.020992   
C304     C      0.380857273333     0.888507600000     0.307681800000    -14.3958    
C305     C      0.485155193333     0.519800365000     0.242007630000    -0.271328   
S306     S      0.640044533333     0.716545835000     0.470138450000     3.10729    
S307     S      0.584877233333     0.862835500000     0.404177800000    -4.84362    
S308     S      0.348166106667     0.802887230000     0.478465950000     8.84305    
S309     S      0.511353166667     0.862757100000     0.455040125000     0.050881   
S310     S      0.444780120000     0.988457350000     0.153206020000     2.17637    
S311     S      0.435750056667     0.943774225000     0.375910135000    -1.00093    
N312     N      0.494507950000     0.870036700000     0.374160650000    -26.0573    
N313     N      0.395521540000     0.705984665000     0.498158425000     1.9714     
N314     N      0.427586466667     0.804957120000     0.434414100000     0.24776    
N315     N      0.454404760000     0.793540050000     0.453526250000    -0.823809   
N316     N      0.539256156667     0.704084000000     0.046348530000     16.8532    
N317     N      0.344344140000     0.568768130000     0.154650400000     0.08211    
N318     N      0.619595786667     0.561876170000     0.116311370000     0.007361   
N319     N      0.472825356667     0.703038650000     0.011913040000    -177.444    
N320     N      0.482807180000     0.596560770000     0.091428375000    -0.078326   
N321     N      0.417577766667     0.677800850000     0.119761735000    -0.379861   
N322     N      0.412519520000     0.667855010000     0.048704880000     0.77124    
N323     N      0.355091090000     0.594546395000     0.082665650000    -0.007862   
N324     N      0.486696273333     0.537083985000     0.193977015000    -0.017603   
N325     N      0.393645143333     0.895163925000     0.335206900000     1.27694    
N326     N      0.445597876667     0.960678550000     0.252987450000     0.258693   
N327     N      0.434663493333     0.971636150000     0.276228000000     0.134367   
O328     O      0.603647233333     0.712549580000     0.491701425000    -3.81482    
O329     O      0.620861966667     0.743713930000     0.450301470000    -1.1237     
O330     O      0.645880700000     0.677077530000     0.452537715000    -7.70272    
O331     O      0.600549500000     0.896881730000     0.419858050000     1.38787    
O332     O      0.599542333333     0.831009300000     0.420894325000     1.8909     
O333     O      0.616552233333     0.860005470000     0.376053200000     7.93372    
O334     O      0.664164780000     0.815432875000     0.451002775000    -6.16877    
O335     O      0.637717300000     0.795745430000     0.494792800000    -2.03775    
O336     O      0.381596053333     0.836017670000     0.494595530000    -1.03231    
O337     O      0.547835700000     0.837115170000     0.467340750000    -0.617669   
O338     O      0.533144333333     0.900201950000     0.455551030000    -0.937453   
O339     O      0.462185273333     0.864508330000     0.474040950000    -0.285341   
O340     O      0.536929133333     0.836807280000     0.380348325000    -37.6797    
O341     O      0.350102343333     0.902809085000     0.320345225000    -2.44612    
O342     O      0.380034606667     0.859259550000     0.349079430000    -1.32204    
O343     O      0.506996890000     0.880356820000     0.351614100000    -346.065    
O344     O      0.478156240000     0.891285030000     0.033767720000    -0.375151   
O345     O      0.405626640000     0.879722265000     0.166769775000     1.38296    
O346     O      0.397406576667     0.887457700000     0.031912875000    -0.238782   
O347     O      0.486376333333     0.883549570000     0.168624600000    -0.269943   
O348     O      0.616196166667     0.531168905000     0.102592355000    -0.198325   
O349     O      0.583837350000     0.584770560000     0.114450950000    -0.089483   
O350     O      0.434311786667     0.723226025000     0.009082470000     19.361     
O351     O      0.490309900000     0.687217310000     0.490549900000     65.6328    
O352     O      0.403956340000     0.649924530000     0.025724990000     3.71113    
O353     O      0.376043383333     0.677029950000     0.063349030000    -0.439875   
O354     O      0.646752180000     0.608240330000     0.074713090000    -0.209897   
O355     O      0.385405546667     0.584191075000     0.064476130000    -0.193066   
O356     O      0.618389386667     0.505887960000     0.218022020000    -0.377796   
O357     O      0.592680700000     0.616780975000     0.142736940000    -0.210577   
O358     O      0.522234366667     0.592366750000     0.154927760000    -0.504567   
O359     O      0.355502366667     0.530302180000     0.205831230000    -0.493905   
O360     O      0.464638043333     0.652653010000     0.170052590000    -0.181258   
O361     O      0.415701910000     0.782401500000     0.362014600000    -10.2517    
O362     O      0.390335400000     0.679195540000     0.169942200000    -0.227444   
O363     O      0.490004550000     0.755859000000     0.362125000000    -0.4944     
O364     O      0.378901800000     0.718187870000     0.011289665000    -6.36919    
O365     O      0.364643453333     0.677889260000     0.044825030000    -0.831551   
O366     O      0.527018110000     0.739810650000     0.497917350000     60.3733    
O367     O      0.512754566667     0.699497300000     0.031464985000    -62.916     
O368     O      0.477928310000     0.675510375000     0.490561300000    -112.12     
O369     O      0.409874956667     0.899993200000     0.381605350000     1.55149    
O370     O      0.492004056667     0.901663800000     0.385666250000     20.6793    
O371     O      0.395799213333     0.673839750000     0.486500400000    -13.1326    
O372     O      0.402552266667     0.962306400000     0.153624800000    -0.373177   
O373     O      0.430902680000     0.516861615000     0.133326950000    -0.448934   
O374     O      0.493230323333     0.965396350000     0.142328665000    -4.2129     
O375     O      0.392634386667     0.964367900000     0.385904430000     30.4748    
O376     O      0.450074100000     0.915396870000     0.395722030000    -5.42361    
O377     O      0.483054120000     0.972977150000     0.375242850000     4.15575    
F378     F      0.510040423333     0.575249970000     0.417773950000     0.199233   
F379     F      0.380919200000     0.537170930000     0.397690500000    -3.27043    
F380     F      0.508707483333     0.502934550000     0.460861750000    -1.96342    
F381     F      0.375934716667     0.535696550000     0.467916130000     0.164949   
Zn0      Zn     0.467655113333     0.585275920000     0.663212240000     1.61648    
Zn1      Zn     0.406443556667     0.536131535000     0.696521450000     1.23312    
Cu2      Cu     0.494653116667     0.709583100000     0.523929905000     86.6219    
Cu3      Cu     0.393965940000     0.707324625000     0.519156590000     2.62446    
Cu4      Cu     0.492341646667     0.872567350000     0.853000375000     268.169    
Cu5      Cu     0.392836223333     0.867586730000     0.847184800000    -2.23077    
H6       H      0.613255100000     0.672182290000     0.943581750000    -0.870692   
H7       H      0.651237786667     0.862625450000     0.882477015000    -3.65138    
H8       H      0.391090030000     0.826338680000     0.512607335000    -0.413114   
H9       H      0.475254693333     0.870614170000     0.992767780000    -0.046142   
H10      H      0.646717300000     0.755992550000     0.890318650000     0.053457   
H11      H      0.646193286667     0.767582475000     0.854795550000     0.350159   
H12      H      0.340684196667     0.726036580000     0.865729330000     0.219907   
H13      H      0.404277056667     0.772213100000     0.857917800000     7.4584     
H14      H      0.404598793333     0.760380150000     0.892995300000    -0.124264   
H15      H      0.355405796667     0.816258670000     0.903611125000     0.472245   
H16      H      0.351509453333     0.827201275000     0.869961750000     0.393419   
H17      H      0.598462243333     0.758309000000     0.943111300000     0.949423   
H18      H      0.601603166667     0.710745035000     0.950931450000     0.445026   
H19      H      0.587640286667     0.723977060000     0.916497530000     1.47592    
H20      H      0.512549766667     0.703608530000     0.938139470000    -0.761785   
H21      H      0.509726400000     0.750226450000     0.929460615000    -0.644198   
H22      H      0.531352700000     0.769888950000     0.977730650000    -3.97614    
H23      H      0.543458233333     0.725677090000     0.986648830000    -40.0403    
H24      H      0.653091350000     0.866821080000     0.820798665000    -6.49212    
H25      H      0.362347563333     0.893293830000     0.802593600000     9.38741    
H26      H      0.345102160000     0.848118275000     0.790283650000    -1.12629    
H27      H      0.426674406667     0.844989270000     0.812886250000     0.128867   
H28      H      0.384402613333     0.822277050000     0.831415650000     0.120218   
H29      H      0.375640930000     0.881739170000     0.861716450000    -2.25354    
H30      H      0.420348333333     0.901826920000     0.844901850000    -3.06993    
H31      H      0.566327433333     0.642231050000     0.515996815000     0.959394   
H32      H      0.512478600000     0.615438230000     0.521386445000    -0.595424   
H33      H      0.546360453333     0.607300365000     0.991301500000    -1.43481    
H34      H      0.472140566667     0.642055110000     0.978844435000    -8.29063    
H35      H      0.525825766667     0.668154120000     0.975303770000    -17.8808    
H36      H      0.512379943333     0.701255470000     0.520360350000    -59.7131    
H37      H      0.467288300000     0.671471925000     0.526871680000    -48.4511    
H38      H      0.544288713333     0.908463420000     0.545761105000    -0.059299   
H39      H      0.578698333333     0.990957350000     0.676082450000     1.03532    
H40      H      0.657682700000     0.985644130000     0.514733140000     0.037932   
H41      H      0.616573566667     0.954649100000     0.996417730000     0.053457   
H42      H      0.600362320000     0.501211820000     0.999895800000     0.045672   
H43      H      0.553624566667     0.969257830000     0.532276570000     0.029638   
H44      H      0.599915333333     0.995042500000     0.551305275000     0.011088   
H45      H      0.654727500000     0.958323550000     0.667120665000    -2.16969    
H46      H      0.347462973333     0.923964000000     0.598631730000    -3.11845    
H47      H      0.376808443333     0.944453450000     0.629246710000     2.06497    
H48      H      0.399569433333     0.902685285000     0.615079125000    -5.54135    
H49      H      0.351817053333     0.890711070000     0.655508350000    -23.605     
H50      H      0.657583076667     0.870095500000     0.625057830000    -2.29134    
H51      H      0.611838000000     0.978139700000     0.636465965000     0.215718   
H52      H      0.653720280000     0.985157500000     0.665855050000     0.482424   
H53      H      0.648407066667     0.518990695000     0.640350625000     0.026621   
H54      H      0.390941673333     0.983011800000     0.635812200000    -0.995266   
H55      H      0.349992606667     0.977452950000     0.606331200000    -0.802203   
H56      H      0.653151016667     0.917947680000     0.624698200000    -6.65864    
H57      H      0.358430916667     0.926556250000     0.653996950000    -1.10608    
H58      H      0.552823066667     0.972797575000     0.528576605000     0.009015   
H59      H      0.526936766667     0.516256390000     0.537171595000    -0.037688   
H60      H      0.575114100000     0.998089375000     0.558858925000     0.096223   
H61      H      0.470499526667     0.967425250000     0.549076650000     0.063443   
H62      H      0.493891606667     0.991493950000     0.579118340000     0.083896   
H63      H      0.554328920000     0.945377500000     0.587980420000     0.165295   
H64      H      0.540048083333     0.919779420000     0.558514140000     0.051871   
H65      H      0.351933146667     0.960304900000     0.558497360000    -0.092381   
H66      H      0.573283353333     0.880764500000     0.615273880000    -1.85027    
H67      H      0.660992633333     0.853260575000     0.587330930000     0.301968   
H68      H      0.500519950000     0.970631720000     0.653456760000     2.13578    
H69      H      0.576260700000     0.854118800000     0.567928440000    -0.332121   
H70      H      0.594567700000     0.706429350000     0.577893225000     1.84163    
H71      H      0.396647586667     0.575360360000     0.687547625000    -0.165138   
H72      H      0.458194700000     0.603915550000     0.660070000000    -1.01966    
H73      H      0.543499986667     0.678786800000     0.611565850000    -1.00775    
H74      H      0.514119966667     0.608949200000     0.585466815000     0.101779   
H75      H      0.516029756667     0.545942635000     0.585915780000     0.03156    
H76      H      0.455671756667     0.544184280000     0.598387650000     0.046008   
H77      H      0.506829580000     0.559661470000     0.620848545000     0.057728   
H78      H      0.405707220000     0.667242840000     0.637414115000     0.165741   
H79      H      0.399422366667     0.729821325000     0.634381560000    -0.091354   
H80      H      0.426437446667     0.728485270000     0.601879560000    -0.568014   
H81      H      0.464003950000     0.721361580000     0.632716375000    -0.14841    
H82      H      0.551158000000     0.706345600000     0.747845365000     0.040387   
H83      H      0.622245100000     0.682966550000     0.774397880000     0.010106   
H84      H      0.611154500000     0.654755430000     0.818681600000     0.041477   
H85      H      0.528225333333     0.648582900000     0.835976550000     0.055155   
H86      H      0.456516573333     0.670513230000     0.809381200000     0.038396   
H87      H      0.661716100000     0.728083120000     0.784987720000    -0.080389   
H88      H      0.590059220000     0.750117900000     0.758180320000     0.054372   
H89      H      0.599902966667     0.775947750000     0.713025435000     0.026157   
H90      H      0.349027970000     0.781808375000     0.695141820000    -0.01461    
H91      H      0.421561066667     0.762305320000     0.722222910000     0.067816   
H92      H      0.439690633333     0.978402585000     0.840745150000    -2.82176    
H93      H      0.386434296667     0.964035950000     0.799720300000     0.694058   
H94      H      0.633061010000     0.946941585000     0.804282150000     0.231018   
H95      H      0.599023933333     0.945240300000     0.850009400000     5.0033     
H96      H      0.651458133333     0.960458600000     0.891197620000     0.998543   
H97      H      0.458026360000     0.903670600000     0.957233500000     0.21835    
H98      H      0.514452376667     0.857042150000     0.974907370000    -0.403292   
H99      H      0.602010666667     0.858939100000     0.964600350000     0.15689    
H100     H      0.633619900000     0.908274050000     0.937187670000     0.004654   
H101     H      0.577933366667     0.955652120000     0.919967920000     0.835932   
H102     H      0.423382113333     0.596887575000     0.530171575000    -0.341659   
H103     H      0.363983083333     0.608916870000     0.565590200000    -0.054085   
H104     H      0.611036420000     0.622183450000     0.552425265000     0.100191   
H105     H      0.583648033333     0.622367350000     0.503647325000     1.00216    
H106     H      0.642295866667     0.609449595000     0.967987800000     0.165423   
H107     H      0.454512546667     0.672419400000     0.916198450000    -0.876338   
H108     H      0.510792866667     0.721316100000     0.904149150000     0.816528   
H109     H      0.596289456667     0.722836360000     0.923022180000    -1.65973    
H110     H      0.626097733333     0.674675880000     0.953430600000     8.13013    
H111     H      0.570646046667     0.625065200000     0.965104750000    -1.64187    
H112     H      0.453752526667     0.975306350000     0.827726335000     2.74054    
H113     H      0.408789380000     0.822835685000     0.787660600000     0.223715   
H114     H      0.356017293333     0.775695235000     0.764444620000     0.039062   
H115     H      0.599808233333     0.784185530000     0.760000825000     0.191969   
H116     H      0.563142066667     0.840749700000     0.777934370000     1.19097    
H117     H      0.615364710000     0.888262550000     0.801007030000     2.70163    
H118     H      0.598299623333     0.543930410000     0.728173650000     0.075741   
H119     H      0.650582966667     0.591401460000     0.751248800000     0.012171   
H120     H      0.613993066667     0.647994460000     0.769182600000     0.029859   
H121     H      0.524460666667     0.656556070000     0.764735050000     0.05553    
H122     H      0.471629976667     0.609451530000     0.741522700000     0.025257   
H123     H      0.650402900000     0.943260550000     0.761128800000     0.096675   
H124     H      0.622035233333     0.933556850000     0.712932080000    -0.084276   
H125     H      0.666091100000     0.891300800000     0.682699300000    -2.33331    
H126     H      0.405452996667     0.858624370000     0.700729150000     0.072728   
H127     H      0.434412520000     0.868195115000     0.748824640000     0.440579   
H128     H      0.445842356667     0.564143775000     0.780332265000     0.097472   
H129     H      0.474603133333     0.573620320000     0.828472200000     0.009666   
H130     H      0.547154666667     0.540847780000     0.846574600000     0.350469   
H131     H      0.591295223333     0.998613330000     0.816369475000     0.916578   
H132     H      0.563135800000     0.988999900000     0.768133650000     0.974884   
H133     H      0.481831013333     0.953707850000     0.624718020000     1.25545    
H134     H      0.485014100000     0.985241770000     0.893485700000    -0.171261   
H135     H      0.426475593333     0.956981300000     0.701526060000    -0.084631   
C136     C      0.519566276667     0.861879530000     0.898713975000     8.98926    
C137     C      0.365132743333     0.730152200000     0.984650900000     1.11619    
C138     C      0.494046700000     0.848166650000     0.920937120000    -0.259032   
C139     C      0.383886733333     0.763060870000     0.975202450000    -3.57486    
C140     C      0.449913006667     0.828920450000     0.915575625000    -1.6848     
C141     C      0.433598250000     0.765306400000     0.969268250000     3.96116    
C142     C      0.425732006667     0.833747120000     0.890096650000     8.8973     
C143     C      0.464877466667     0.738118900000     0.979308250000    -10.9666    
C144     C      0.445698846667     0.858180000000     0.871116370000    -24.3117    
C145     C      0.445864160000     0.709969685000     0.995610650000     3.70259    
C146     C      0.376389663333     0.814411300000     0.884987150000    -2.7165     
C147     C      0.383417313333     0.774366700000     0.876692350000     1.51813    
C148     C      0.334427070000     0.754879050000     0.871577600000    -1.15272    
C149     C      0.518970100000     0.741548850000     0.973290680000    -5.51934    
C150     C      0.527946800000     0.730980115000     0.943413700000     4.26093    
C151     C      0.582367466667     0.731036560000     0.938251450000    -1.45904    
C152     C      0.409138113333     0.874744175000     0.850899750000     6.21042    
C153     C      0.395325230000     0.849708950000     0.825769215000    -1.01224    
C154     C      0.353047596667     0.865565420000     0.808816950000     2.07499    
C155     C      0.482370966667     0.685086265000     0.509901045000     201.4      
C156     C      0.502711533333     0.656072260000     0.990410950000     44.1929    
C157     C      0.533823333333     0.628576280000     0.505803110000    -9.74687    
C158     C      0.542477290000     0.861146180000     0.862190450000     125.901    
C159     C      0.344599086667     0.878622920000     0.838633550000     7.52782    
C160     C      0.590039990000     0.867330580000     0.853864200000    -44.7745    
C161     C      0.630399033333     0.872419850000     0.846995385000     25.3649    
C162     C      0.437782256667     0.894297630000     0.545405945000    -0.019799   
C163     C      0.445052086667     0.891045350000     0.656989215000     0.038071   
C164     C      0.612907946667     0.938030950000     0.549978735000    -0.555822   
C165     C      0.619338850000     0.916698950000     0.641054465000    -12.7403    
C166     C      0.661448380000     0.937074550000     0.560348390000     1.54801    
C167     C      0.442914800000     0.906221650000     0.630036235000     0.24112    
C168     C      0.574586933333     0.904565125000     0.628804160000     6.0783     
C169     C      0.345401066667     0.906869150000     0.574261195000     0.496878   
C170     C      0.531717676667     0.924319200000     0.632733600000    -2.74895    
C171     C      0.648001133333     0.876760700000     0.576648825000    -0.307439   
C172     C      0.533302883333     0.955163450000     0.650224270000     2.77558    
C173     C      0.599970916667     0.877307000000     0.565900440000     0.090058   
C174     C      0.577532013333     0.966880050000     0.662882390000    -3.64307    
C175     C      0.582101920000     0.908086950000     0.553161885000     0.09725    
C176     C      0.620486466667     0.948162900000     0.657940075000     6.47372    
C177     C      0.397396153333     0.912641375000     0.616737230000     3.70836    
C178     C      0.438315233333     0.905645450000     0.574319265000     0.455252   
C179     C      0.482670923333     0.917510000000     0.588351845000    -0.435349   
C180     C      0.593639533333     0.971575675000     0.536811380000     0.112139   
C181     C      0.618706046667     0.978646350000     0.510437410000    -0.036946   
C182     C      0.665777186667     0.896548780000     0.635837330000     41.0598    
C183     C      0.366008243333     0.918407900000     0.618621715000     12.4903    
C184     C      0.355483786667     0.930128870000     0.631818490000    -12.0791    
C185     C      0.355235990000     0.971246550000     0.628136070000     2.98678    
C186     C      0.648019733333     0.989406350000     0.643698575000    -0.508848   
C187     C      0.523065000000     0.937304650000     0.574013560000     0.010229   
C188     C      0.503872066667     0.972681135000     0.562187965000    -0.087595   
C189     C      0.485788500000     0.914647000000     0.616809600000     0.544759   
C190     C      0.542163253333     0.991009770000     0.545678610000    -0.024558   
C191     C      0.394371836667     0.907950280000     0.588363100000    -1.0514     
C192     C      0.557384946667     0.698499950000     0.572077425000    -8.85481    
C193     C      0.388440623333     0.579425695000     0.666157185000    -0.162072   
C194     C      0.528405050000     0.683018750000     0.591178560000     3.86331    
C195     C      0.423273933333     0.595530080000     0.650597400000     0.123389   
C196     C      0.480254700000     0.672798975000     0.583814720000    -3.19129    
C197     C      0.412739133333     0.600919635000     0.622925185000    -0.026961   
C198     C      0.461501606667     0.678779365000     0.557144360000     2.96172    
C199     C      0.366859826667     0.589861600000     0.611125290000     0.155715   
C200     C      0.492057233333     0.694870785000     0.538525120000     24.2381    
C201     C      0.666001180000     0.573841655000     0.627746910000    -0.140264   
C202     C      0.449849966667     0.655574560000     0.604259430000     0.952606   
C203     C      0.449951433333     0.618738225000     0.606558050000    -0.231616   
C204     C      0.490579366667     0.559698375000     0.599720950000    -0.100974   
C205     C      0.427655390000     0.716356800000     0.622242510000     0.112019   
C206     C      0.642281866667     0.528285540000     0.704491735000     0.065116   
C207     C      0.568788233333     0.594383390000     0.656267240000     0.411585   
C208     C      0.616486650000     0.551484950000     0.687565625000    -0.00061    
C209     C      0.594590200000     0.571177930000     0.673197790000    -0.150734   
C210     C      0.431572060000     0.671025290000     0.682072775000     0.257916   
C211     C      0.448688066667     0.763909070000     0.850007685000     1.72546    
C212     C      0.438954680000     0.752249630000     0.822413920000    -1.49174    
C213     C      0.441017686667     0.682301910000     0.709737570000    -0.074654   
C214     C      0.423600633333     0.729006710000     0.771427750000    -0.291506   
C215     C      0.455710183333     0.705086450000     0.760828200000     0.093985   
C216     C      0.448523093333     0.692087665000     0.733043360000     0.007816   
C217     C      0.431112876667     0.742187260000     0.799177885000     0.667758   
C218     C      0.498551816667     0.690910175000     0.776880325000    -0.0343     
C219     C      0.545652066667     0.693684430000     0.767009950000    -0.047292   
C220     C      0.586047253333     0.680588035000     0.782037885000    -0.033639   
C221     C      0.579819480000     0.664626730000     0.806991900000    -0.036156   
C222     C      0.533084253333     0.661189950000     0.816757680000    -0.024432   
C223     C      0.492550300000     0.673912915000     0.801693800000    -0.036201   
C224     C      0.380396620000     0.742788750000     0.755399450000     0.046484   
C225     C      0.333469806667     0.740015075000     0.765506685000     0.110918   
C226     C      0.626030086667     0.752174850000     0.750301000000    -0.156446   
C227     C      0.631585616667     0.766948400000     0.724872250000    -0.11525    
C228     C      0.344742193333     0.770319285000     0.714823000000    -0.014302   
C229     C      0.385730743333     0.758859900000     0.730147660000    -0.043317   
C230     C      0.350253900000     0.700535820000     0.526511140000     0.000652   
C231     C      0.591323633333     0.711342275000     0.519840255000    -12.2852    
C232     C      0.633663553333     0.706363950000     0.522916585000     5.08432    
C233     C      0.541399576667     0.717167150000     0.516243525000     26.0096    
C234     C      0.437651673333     0.659349485000     0.982658200000     46.8753    
C235     C      0.476474683333     0.582328675000     0.936666100000    -3.31246    
C236     C      0.412928513333     0.511832385000     0.906844600000     16.8364    
C237     C      0.478435800000     0.994557380000     0.938798850000     4.44516    
C238     C      0.450151810000     0.916156200000     0.889505180000    -0.898978   
C239     C      0.407767206667     0.562332115000     0.961942525000    -2.69133    
C240     C      0.474745333333     0.616593500000     0.949411550000     7.30308    
C241     C      0.414691006667     0.977961800000     0.893493850000    -32.6068    
C242     C      0.480169386667     0.960283130000     0.926068300000    -4.89494    
C243     C      0.406003633333     0.596189945000     0.975312770000     5.73071    
C244     C      0.439488440000     0.623623730000     0.968967100000    -15.3419    
C245     C      0.448315566667     0.951888325000     0.903186530000     11.7579    
C246     C      0.442980333333     0.555518475000     0.942860125000     2.9808     
C247     C      0.444815576667     0.520010875000     0.929259030000    -3.99365    
C248     C      0.508774676667     0.645098250000     0.941294850000    -3.89801    
C249     C      0.492042820000     0.672499580000     0.924156800000     2.93538    
C250     C      0.523718033333     0.700287475000     0.917431830000    -2.69483    
C251     C      0.571969300000     0.701113565000     0.928036185000     3.11364    
C252     C      0.588795500000     0.673910470000     0.945132165000    -4.75463    
C253     C      0.557411300000     0.645822465000     0.951639475000     4.82446    
C254     C      0.382506543333     0.970788900000     0.868850530000    -19.4162    
C255     C      0.401629110000     0.971592100000     0.842916100000     8.77134    
C256     C      0.371665443333     0.963287175000     0.819692900000    -3.59226    
C257     C      0.656065783333     0.953707575000     0.822261500000     2.71276    
C258     C      0.636854600000     0.952828400000     0.848042725000    -0.207852   
C259     C      0.666542200000     0.961557030000     0.871301450000    -2.43291    
C260     C      0.514126866667     0.933150680000     0.937577220000     1.89114    
C261     C      0.496392676667     0.905093075000     0.953034450000    -0.672218   
C262     C      0.528165833333     0.878581525000     0.962925800000     1.21667    
C263     C      0.577571966667     0.879683800000     0.957154275000    -0.044241   
C264     C      0.595408600000     0.907548300000     0.941747220000    -0.234749   
C265     C      0.563873633333     0.934373400000     0.932102700000    -0.45902    
C266     C      0.370225696667     0.601975750000     0.996581675000    -1.80767    
C267     C      0.385567526667     0.602021740000     0.524226310000    -1.57701    
C268     C      0.352113490000     0.609008775000     0.544292865000     0.635204   
C269     C      0.636760066667     0.616427550000     0.536868690000    -0.039788   
C270     C      0.621305146667     0.616453355000     0.509367345000    -0.747818   
C271     C      0.654505666667     0.609030835000     0.989240700000     0.662751   
C272     C      0.395135143333     0.912492900000     0.787190400000     3.61654    
C273     C      0.457631066667     0.988451600000     0.734553175000     0.265478   
C274     C      0.422633133333     0.943854950000     0.794656575000     0.994255   
C275     C      0.445788760000     0.981986100000     0.707167240000     0.076918   
C276     C      0.434482500000     0.950300650000     0.822049050000     0.922903   
C277     C      0.459536423333     0.505722700000     0.687002400000    -1.77938    
C278     C      0.420763266667     0.926543450000     0.842176615000     5.76569    
C279     C      0.348835153333     0.857771400000     0.798020850000     0.841227   
C280     C      0.369579616667     0.826455770000     0.786446750000     0.49193    
C281     C      0.339864356667     0.799867450000     0.773072570000     0.015731   
C282     C      0.622742766667     0.804722050000     0.770455630000    -0.508435   
C283     C      0.602045753333     0.836495520000     0.780734050000     1.27596    
C284     C      0.631642200000     0.863137100000     0.794114830000    -1.28225    
C285     C      0.531534313333     0.574473320000     0.731160450000    -0.02001    
C286     C      0.582049986667     0.569068670000     0.735066115000    -0.049896   
C287     C      0.611683400000     0.595690070000     0.748448415000    -0.01663    
C288     C      0.591027366667     0.627477585000     0.758727700000    -0.035341   
C289     C      0.540583066667     0.632371070000     0.756111115000    -0.024596   
C290     C      0.510836523333     0.605802415000     0.742736850000    -0.045775   
C291     C      0.377517163333     0.906196685000     0.758400680000    -1.18761    
C292     C      0.336456226667     0.924684880000     0.748083370000    -0.417808   
C293     C      0.653696966667     0.919251470000     0.720842100000     0.592281   
C294     C      0.345199143333     0.895418850000     0.703796750000     1.50147    
C295     C      0.386175776667     0.876988300000     0.713964015000    -0.85254    
C296     C      0.402410103333     0.882371550000     0.741184235000     0.813077   
C297     C      0.502730886667     0.526117145000     0.770804300000     0.587513   
C298     C      0.477801013333     0.549939035000     0.788004850000    -0.273838   
C299     C      0.493921586667     0.555270135000     0.815248070000     0.204943   
C300     C      0.534818666667     0.536782800000     0.825456950000     0.022681   
C301     C      0.559698423333     0.512963355000     0.808428050000     0.689646   
C302     C      0.543727080000     0.507584035000     0.781162920000    -0.869979   
C303     C      0.499472540000     0.543757615000     0.721502170000     0.020992   
C304     C      0.380857273333     0.888507600000     0.807681800000    -14.3958    
C305     C      0.485155193333     0.519800365000     0.742007630000    -0.271328   
S306     S      0.640044533333     0.716545835000     0.970138450000     3.10729    
S307     S      0.584877233333     0.862835500000     0.904177800000    -4.84362    
S308     S      0.348166106667     0.802887230000     0.978465950000     8.84305    
S309     S      0.511353166667     0.862757100000     0.955040125000     0.050881   
S310     S      0.444780120000     0.988457350000     0.653206020000     2.17637    
S311     S      0.435750056667     0.943774225000     0.875910135000    -1.00093    
N312     N      0.494507950000     0.870036700000     0.874160650000    -26.0573    
N313     N      0.395521540000     0.705984665000     0.998158425000     1.9714     
N314     N      0.427586466667     0.804957120000     0.934414100000     0.24776    
N315     N      0.454404760000     0.793540050000     0.953526250000    -0.823809   
N316     N      0.539256156667     0.704084000000     0.546348530000     16.8532    
N317     N      0.344344140000     0.568768130000     0.654650400000     0.08211    
N318     N      0.619595786667     0.561876170000     0.616311370000     0.007361   
N319     N      0.472825356667     0.703038650000     0.511913040000    -177.444    
N320     N      0.482807180000     0.596560770000     0.591428375000    -0.078326   
N321     N      0.417577766667     0.677800850000     0.619761735000    -0.379861   
N322     N      0.412519520000     0.667855010000     0.548704880000     0.77124    
N323     N      0.355091090000     0.594546395000     0.582665650000    -0.007862   
N324     N      0.486696273333     0.537083985000     0.693977015000    -0.017603   
N325     N      0.393645143333     0.895163925000     0.835206900000     1.27694    
N326     N      0.445597876667     0.960678550000     0.752987450000     0.258693   
N327     N      0.434663493333     0.971636150000     0.776228000000     0.134367   
O328     O      0.603647233333     0.712549580000     0.991701425000    -3.81482    
O329     O      0.620861966667     0.743713930000     0.950301470000    -1.1237     
O330     O      0.645880700000     0.677077530000     0.952537715000    -7.70272    
O331     O      0.600549500000     0.896881730000     0.919858050000     1.38787    
O332     O      0.599542333333     0.831009300000     0.920894325000     1.8909     
O333     O      0.616552233333     0.860005470000     0.876053200000     7.93372    
O334     O      0.664164780000     0.815432875000     0.951002775000    -6.16877    
O335     O      0.637717300000     0.795745430000     0.994792800000    -2.03775    
O336     O      0.381596053333     0.836017670000     0.994595530000    -1.03231    
O337     O      0.547835700000     0.837115170000     0.967340750000    -0.617669   
O338     O      0.533144333333     0.900201950000     0.955551030000    -0.937453   
O339     O      0.462185273333     0.864508330000     0.974040950000    -0.285341   
O340     O      0.536929133333     0.836807280000     0.880348325000    -37.6797    
O341     O      0.350102343333     0.902809085000     0.820345225000    -2.44612    
O342     O      0.380034606667     0.859259550000     0.849079430000    -1.32204    
O343     O      0.506996890000     0.880356820000     0.851614100000    -346.065    
O344     O      0.478156240000     0.891285030000     0.533767720000    -0.375151   
O345     O      0.405626640000     0.879722265000     0.666769775000     1.38296    
O346     O      0.397406576667     0.887457700000     0.531912875000    -0.238782   
O347     O      0.486376333333     0.883549570000     0.668624600000    -0.269943   
O348     O      0.616196166667     0.531168905000     0.602592355000    -0.198325   
O349     O      0.583837350000     0.584770560000     0.614450950000    -0.089483   
O350     O      0.434311786667     0.723226025000     0.509082470000     19.361     
O351     O      0.490309900000     0.687217310000     0.990549900000     65.6328    
O352     O      0.403956340000     0.649924530000     0.525724990000     3.71113    
O353     O      0.376043383333     0.677029950000     0.563349030000    -0.439875   
O354     O      0.646752180000     0.608240330000     0.574713090000    -0.209897   
O355     O      0.385405546667     0.584191075000     0.564476130000    -0.193066   
O356     O      0.618389386667     0.505887960000     0.718022020000    -0.377796   
O357     O      0.592680700000     0.616780975000     0.642736940000    -0.210577   
O358     O      0.522234366667     0.592366750000     0.654927760000    -0.504567   
O359     O      0.355502366667     0.530302180000     0.705831230000    -0.493905   
O360     O      0.464638043333     0.652653010000     0.670052590000    -0.181258   
O361     O      0.415701910000     0.782401500000     0.862014600000    -10.2517    
O362     O      0.390335400000     0.679195540000     0.669942200000    -0.227444   
O363     O      0.490004550000     0.755859000000     0.862125000000    -0.4944     
O364     O      0.378901800000     0.718187870000     0.511289665000    -6.36919    
O365     O      0.364643453333     0.677889260000     0.544825030000    -0.831551   
O366     O      0.527018110000     0.739810650000     0.997917350000     60.3733    
O367     O      0.512754566667     0.699497300000     0.531464985000    -62.916     
O368     O      0.477928310000     0.675510375000     0.990561300000    -112.12     
O369     O      0.409874956667     0.899993200000     0.881605350000     1.55149    
O370     O      0.492004056667     0.901663800000     0.885666250000     20.6793    
O371     O      0.395799213333     0.673839750000     0.986500400000    -13.1326    
O372     O      0.402552266667     0.962306400000     0.653624800000    -0.373177   
O373     O      0.430902680000     0.516861615000     0.633326950000    -0.448934   
O374     O      0.493230323333     0.965396350000     0.642328665000    -4.2129     
O375     O      0.392634386667     0.964367900000     0.885904430000     30.4748    
O376     O      0.450074100000     0.915396870000     0.895722030000    -5.42361    
O377     O      0.483054120000     0.972977150000     0.875242850000     4.15575    
F378     F      0.510040423333     0.575249970000     0.917773950000     0.199233   
F379     F      0.380919200000     0.537170930000     0.897690500000    -3.27043    
F380     F      0.508707483333     0.502934550000     0.960861750000    -1.96342    
F381     F      0.375934716667     0.535696550000     0.967916130000     0.164949   
Zn0      Zn     0.800988446667     0.085275920000     0.163212240000     1.61648    
Zn1      Zn     0.739776890000     0.036131535000     0.196521450000     1.23312    
Cu2      Cu     0.827986450000     0.209583100000     0.023929905000     86.6219    
Cu3      Cu     0.727299273333     0.207324625000     0.019156590000     2.62446    
Cu4      Cu     0.825674980000     0.372567350000     0.353000375000     268.169    
Cu5      Cu     0.726169556667     0.367586730000     0.347184800000    -2.23077    
H6       H      0.946588433333     0.172182290000     0.443581750000    -0.870692   
H7       H      0.984571120000     0.362625450000     0.382477015000    -3.65138    
H8       H      0.724423363333     0.326338680000     0.012607335000    -0.413114   
H9       H      0.808588026667     0.370614170000     0.492767780000    -0.046142   
H10      H      0.980050633333     0.255992550000     0.390318650000     0.053457   
H11      H      0.979526620000     0.267582475000     0.354795550000     0.350159   
H12      H      0.674017530000     0.226036580000     0.365729330000     0.219907   
H13      H      0.737610390000     0.272213100000     0.357917800000     7.4584     
H14      H      0.737932126667     0.260380150000     0.392995300000    -0.124264   
H15      H      0.688739130000     0.316258670000     0.403611125000     0.472245   
H16      H      0.684842786667     0.327201275000     0.369961750000     0.393419   
H17      H      0.931795576667     0.258309000000     0.443111300000     0.949423   
H18      H      0.934936500000     0.210745035000     0.450931450000     0.445026   
H19      H      0.920973620000     0.223977060000     0.416497530000     1.47592    
H20      H      0.845883100000     0.203608530000     0.438139470000    -0.761785   
H21      H      0.843059733333     0.250226450000     0.429460615000    -0.644198   
H22      H      0.864686033333     0.269888950000     0.477730650000    -3.97614    
H23      H      0.876791566667     0.225677090000     0.486648830000    -40.0403    
H24      H      0.986424683333     0.366821080000     0.320798665000    -6.49212    
H25      H      0.695680896667     0.393293830000     0.302593600000     9.38741    
H26      H      0.678435493333     0.348118275000     0.290283650000    -1.12629    
H27      H      0.760007740000     0.344989270000     0.312886250000     0.128867   
H28      H      0.717735946667     0.322277050000     0.331415650000     0.120218   
H29      H      0.708974263333     0.381739170000     0.361716450000    -2.25354    
H30      H      0.753681666667     0.401826920000     0.344901850000    -3.06993    
H31      H      0.899660766667     0.142231050000     0.015996815000     0.959394   
H32      H      0.845811933333     0.115438230000     0.021386445000    -0.595424   
H33      H      0.879693786667     0.107300365000     0.491301500000    -1.43481    
H34      H      0.805473900000     0.142055110000     0.478844435000    -8.29063    
H35      H      0.859159100000     0.168154120000     0.475303770000    -17.8808    
H36      H      0.845713276667     0.201255470000     0.020360350000    -59.7131    
H37      H      0.800621633333     0.171471925000     0.026871680000    -48.4511    
H38      H      0.877622046667     0.408463420000     0.045761105000    -0.059299   
H39      H      0.912031666667     0.490957350000     0.176082450000     1.03532    
H40      H      0.991016033333     0.485644130000     0.014733140000     0.037932   
H41      H      0.949906900000     0.454649100000     0.496417730000     0.053457   
H42      H      0.933695653333     0.001211820000     0.499895800000     0.045672   
H43      H      0.886957900000     0.469257830000     0.032276570000     0.029638   
H44      H      0.933248666667     0.495042500000     0.051305275000     0.011088   
H45      H      0.988060833333     0.458323550000     0.167120665000    -2.16969    
H46      H      0.680796306667     0.423964000000     0.098631730000    -3.11845    
H47      H      0.710141776667     0.444453450000     0.129246710000     2.06497    
H48      H      0.732902766667     0.402685285000     0.115079125000    -5.54135    
H49      H      0.685150386667     0.390711070000     0.155508350000    -23.605     
H50      H      0.990916410000     0.370095500000     0.125057830000    -2.29134    
H51      H      0.945171333333     0.478139700000     0.136465965000     0.215718   
H52      H      0.987053613333     0.485157500000     0.165855050000     0.482424   
H53      H      0.981740400000     0.018990695000     0.140350625000     0.026621   
H54      H      0.724275006667     0.483011800000     0.135812200000    -0.995266   
H55      H      0.683325940000     0.477452950000     0.106331200000    -0.802203   
H56      H      0.986484350000     0.417947680000     0.124698200000    -6.65864    
H57      H      0.691764250000     0.426556250000     0.153996950000    -1.10608    
H58      H      0.886156400000     0.472797575000     0.028576605000     0.009015   
H59      H      0.860270100000     0.016256390000     0.037171595000    -0.037688   
H60      H      0.908447433333     0.498089375000     0.058858925000     0.096223   
H61      H      0.803832860000     0.467425250000     0.049076650000     0.063443   
H62      H      0.827224940000     0.491493950000     0.079118340000     0.083896   
H63      H      0.887662253333     0.445377500000     0.087980420000     0.165295   
H64      H      0.873381416667     0.419779420000     0.058514140000     0.051871   
H65      H      0.685266480000     0.460304900000     0.058497360000    -0.092381   
H66      H      0.906616686667     0.380764500000     0.115273880000    -1.85027    
H67      H      0.994325966667     0.353260575000     0.087330930000     0.301968   
H68      H      0.833853283333     0.470631720000     0.153456760000     2.13578    
H69      H      0.909594033333     0.354118800000     0.067928440000    -0.332121   
H70      H      0.927901033333     0.206429350000     0.077893225000     1.84163    
H71      H      0.729980920000     0.075360360000     0.187547625000    -0.165138   
H72      H      0.791528033333     0.103915550000     0.160070000000    -1.01966    
H73      H      0.876833320000     0.178786800000     0.111565850000    -1.00775    
H74      H      0.847453300000     0.108949200000     0.085466815000     0.101779   
H75      H      0.849363090000     0.045942635000     0.085915780000     0.03156    
H76      H      0.789005090000     0.044184280000     0.098387650000     0.046008   
H77      H      0.840162913333     0.059661470000     0.120848545000     0.057728   
H78      H      0.739040553333     0.167242840000     0.137414115000     0.165741   
H79      H      0.732755700000     0.229821325000     0.134381560000    -0.091354   
H80      H      0.759770780000     0.228485270000     0.101879560000    -0.568014   
H81      H      0.797337283333     0.221361580000     0.132716375000    -0.14841    
H82      H      0.884491333333     0.206345600000     0.247845365000     0.040387   
H83      H      0.955578433333     0.182966550000     0.274397880000     0.010106   
H84      H      0.944487833333     0.154755430000     0.318681600000     0.041477   
H85      H      0.861558666667     0.148582900000     0.335976550000     0.055155   
H86      H      0.789849906667     0.170513230000     0.309381200000     0.038396   
H87      H      0.995049433333     0.228083120000     0.284987720000    -0.080389   
H88      H      0.923392553333     0.250117900000     0.258180320000     0.054372   
H89      H      0.933236300000     0.275947750000     0.213025435000     0.026157   
H90      H      0.682361303333     0.281808375000     0.195141820000    -0.01461    
H91      H      0.754894400000     0.262305320000     0.222222910000     0.067816   
H92      H      0.773023966667     0.478402585000     0.340745150000    -2.82176    
H93      H      0.719767630000     0.464035950000     0.299720300000     0.694058   
H94      H      0.966394343333     0.446941585000     0.304282150000     0.231018   
H95      H      0.932357266667     0.445240300000     0.350009400000     5.0033     
H96      H      0.984791466667     0.460458600000     0.391197620000     0.998543   
H97      H      0.791359693333     0.403670600000     0.457233500000     0.21835    
H98      H      0.847785710000     0.357042150000     0.474907370000    -0.403292   
H99      H      0.935344000000     0.358939100000     0.464600350000     0.15689    
H100     H      0.966953233333     0.408274050000     0.437187670000     0.004654   
H101     H      0.911266700000     0.455652120000     0.419967920000     0.835932   
H102     H      0.756715446667     0.096887575000     0.030171575000    -0.341659   
H103     H      0.697316416667     0.108916870000     0.065590200000    -0.054085   
H104     H      0.944369753333     0.122183450000     0.052425265000     0.100191   
H105     H      0.916981366667     0.122367350000     0.003647325000     1.00216    
H106     H      0.975629200000     0.109449595000     0.467987800000     0.165423   
H107     H      0.787845880000     0.172419400000     0.416198450000    -0.876338   
H108     H      0.844126200000     0.221316100000     0.404149150000     0.816528   
H109     H      0.929622790000     0.222836360000     0.423022180000    -1.65973    
H110     H      0.959431066667     0.174675880000     0.453430600000     8.13013    
H111     H      0.903979380000     0.125065200000     0.465104750000    -1.64187    
H112     H      0.787085860000     0.475306350000     0.327726335000     2.74054    
H113     H      0.742122713333     0.322835685000     0.287660600000     0.223715   
H114     H      0.689350626667     0.275695235000     0.264444620000     0.039062   
H115     H      0.933141566667     0.284185530000     0.260000825000     0.191969   
H116     H      0.896475400000     0.340749700000     0.277934370000     1.19097    
H117     H      0.948698043333     0.388262550000     0.301007030000     2.70163    
H118     H      0.931632956667     0.043930410000     0.228173650000     0.075741   
H119     H      0.983916300000     0.091401460000     0.251248800000     0.012171   
H120     H      0.947326400000     0.147994460000     0.269182600000     0.029859   
H121     H      0.857794000000     0.156556070000     0.264735050000     0.05553    
H122     H      0.804963310000     0.109451530000     0.241522700000     0.025257   
H123     H      0.983736233333     0.443260550000     0.261128800000     0.096675   
H124     H      0.955368566667     0.433556850000     0.212932080000    -0.084276   
H125     H      0.999424433333     0.391300800000     0.182699300000    -2.33331    
H126     H      0.738786330000     0.358624370000     0.200729150000     0.072728   
H127     H      0.767745853333     0.368195115000     0.248824640000     0.440579   
H128     H      0.779175690000     0.064143775000     0.280332265000     0.097472   
H129     H      0.807936466667     0.073620320000     0.328472200000     0.009666   
H130     H      0.880488000000     0.040847780000     0.346574600000     0.350469   
H131     H      0.924628556667     0.498613330000     0.316369475000     0.916578   
H132     H      0.896469133333     0.488999900000     0.268133650000     0.974884   
H133     H      0.815164346667     0.453707850000     0.124718020000     1.25545    
H134     H      0.818347433333     0.485241770000     0.393485700000    -0.171261   
H135     H      0.759808926667     0.456981300000     0.201526060000    -0.084631   
C136     C      0.852899610000     0.361879530000     0.398713975000     8.98926    
C137     C      0.698466076667     0.230152200000     0.484650900000     1.11619    
C138     C      0.827380033333     0.348166650000     0.420937120000    -0.259032   
C139     C      0.717220066667     0.263060870000     0.475202450000    -3.57486    
C140     C      0.783246340000     0.328920450000     0.415575625000    -1.6848     
C141     C      0.766931583333     0.265306400000     0.469268250000     3.96116    
C142     C      0.759065340000     0.333747120000     0.390096650000     8.8973     
C143     C      0.798210800000     0.238118900000     0.479308250000    -10.9666    
C144     C      0.779032180000     0.358180000000     0.371116370000    -24.3117    
C145     C      0.779197493333     0.209969685000     0.495610650000     3.70259    
C146     C      0.709722996667     0.314411300000     0.384987150000    -2.7165     
C147     C      0.716750646667     0.274366700000     0.376692350000     1.51813    
C148     C      0.667760403333     0.254879050000     0.371577600000    -1.15272    
C149     C      0.852303433333     0.241548850000     0.473290680000    -5.51934    
C150     C      0.861280133333     0.230980115000     0.443413700000     4.26093    
C151     C      0.915700800000     0.231036560000     0.438251450000    -1.45904    
C152     C      0.742471446667     0.374744175000     0.350899750000     6.21042    
C153     C      0.728658563333     0.349708950000     0.325769215000    -1.01224    
C154     C      0.686380930000     0.365565420000     0.308816950000     2.07499    
C155     C      0.815704300000     0.185086265000     0.009901045000     201.4      
C156     C      0.836044866667     0.156072260000     0.490410950000     44.1929    
C157     C      0.867156666667     0.128576280000     0.005803110000    -9.74687    
C158     C      0.875810623333     0.361146180000     0.362190450000     125.901    
C159     C      0.677932420000     0.378622920000     0.338633550000     7.52782    
C160     C      0.923373323333     0.367330580000     0.353864200000    -44.7745    
C161     C      0.963732366667     0.372419850000     0.346995385000     25.3649    
C162     C      0.771115590000     0.394297630000     0.045405945000    -0.019799   
C163     C      0.778385420000     0.391045350000     0.156989215000     0.038071   
C164     C      0.946241280000     0.438030950000     0.049978735000    -0.555822   
C165     C      0.952672183333     0.416698950000     0.141054465000    -12.7403    
C166     C      0.994781713333     0.437074550000     0.060348390000     1.54801    
C167     C      0.776248133333     0.406221650000     0.130036235000     0.24112    
C168     C      0.907920266667     0.404565125000     0.128804160000     6.0783     
C169     C      0.678734400000     0.406869150000     0.074261195000     0.496878   
C170     C      0.865051010000     0.424319200000     0.132733600000    -2.74895    
C171     C      0.981334466667     0.376760700000     0.076648825000    -0.307439   
C172     C      0.866636216667     0.455163450000     0.150224270000     2.77558    
C173     C      0.933304250000     0.377307000000     0.065900440000     0.090058   
C174     C      0.910865346667     0.466880050000     0.162882390000    -3.64307    
C175     C      0.915435253333     0.408086950000     0.053161885000     0.09725    
C176     C      0.953819800000     0.448162900000     0.157940075000     6.47372    
C177     C      0.730729486667     0.412641375000     0.116737230000     3.70836    
C178     C      0.771648566667     0.405645450000     0.074319265000     0.455252   
C179     C      0.816004256667     0.417510000000     0.088351845000    -0.435349   
C180     C      0.926972866667     0.471575675000     0.036811380000     0.112139   
C181     C      0.952039380000     0.478646350000     0.010437410000    -0.036946   
C182     C      0.999110520000     0.396548780000     0.135837330000     41.0598    
C183     C      0.699341576667     0.418407900000     0.118621715000     12.4903    
C184     C      0.688817120000     0.430128870000     0.131818490000    -12.0791    
C185     C      0.688569323333     0.471246550000     0.128136070000     2.98678    
C186     C      0.981353066667     0.489406350000     0.143698575000    -0.508848   
C187     C      0.856398333333     0.437304650000     0.074013560000     0.010229   
C188     C      0.837205400000     0.472681135000     0.062187965000    -0.087595   
C189     C      0.819121833333     0.414647000000     0.116809600000     0.544759   
C190     C      0.875496586667     0.491009770000     0.045678610000    -0.024558   
C191     C      0.727705170000     0.407950280000     0.088363100000    -1.0514     
C192     C      0.890718280000     0.198499950000     0.072077425000    -8.85481    
C193     C      0.721773956667     0.079425695000     0.166157185000    -0.162072   
C194     C      0.861738383333     0.183018750000     0.091178560000     3.86331    
C195     C      0.756607266667     0.095530080000     0.150597400000     0.123389   
C196     C      0.813588033333     0.172798975000     0.083814720000    -3.19129    
C197     C      0.746072466667     0.100919635000     0.122925185000    -0.026961   
C198     C      0.794834940000     0.178779365000     0.057144360000     2.96172    
C199     C      0.700193160000     0.089861600000     0.111125290000     0.155715   
C200     C      0.825390566667     0.194870785000     0.038525120000     24.2381    
C201     C      0.999334513333     0.073841655000     0.127746910000    -0.140264   
C202     C      0.783183300000     0.155574560000     0.104259430000     0.952606   
C203     C      0.783284766667     0.118738225000     0.106558050000    -0.231616   
C204     C      0.823912700000     0.059698375000     0.099720950000    -0.100974   
C205     C      0.760988723333     0.216356800000     0.122242510000     0.112019   
C206     C      0.975615200000     0.028285540000     0.204491735000     0.065116   
C207     C      0.902121566667     0.094383390000     0.156267240000     0.411585   
C208     C      0.949819983333     0.051484950000     0.187565625000    -0.00061    
C209     C      0.927923533333     0.071177930000     0.173197790000    -0.150734   
C210     C      0.764905393333     0.171025290000     0.182072775000     0.257916   
C211     C      0.782021400000     0.263909070000     0.350007685000     1.72546    
C212     C      0.772288013333     0.252249630000     0.322413920000    -1.49174    
C213     C      0.774351020000     0.182301910000     0.209737570000    -0.074654   
C214     C      0.756933966667     0.229006710000     0.271427750000    -0.291506   
C215     C      0.789043516667     0.205086450000     0.260828200000     0.093985   
C216     C      0.781856426667     0.192087665000     0.233043360000     0.007816   
C217     C      0.764446210000     0.242187260000     0.299177885000     0.667758   
C218     C      0.831885150000     0.190910175000     0.276880325000    -0.0343     
C219     C      0.878985400000     0.193684430000     0.267009950000    -0.047292   
C220     C      0.919380586667     0.180588035000     0.282037885000    -0.033639   
C221     C      0.913152813333     0.164626730000     0.306991900000    -0.036156   
C222     C      0.866417586667     0.161189950000     0.316757680000    -0.024432   
C223     C      0.825883633333     0.173912915000     0.301693800000    -0.036201   
C224     C      0.713729953333     0.242788750000     0.255399450000     0.046484   
C225     C      0.666803140000     0.240015075000     0.265506685000     0.110918   
C226     C      0.959363420000     0.252174850000     0.250301000000    -0.156446   
C227     C      0.964918950000     0.266948400000     0.224872250000    -0.11525    
C228     C      0.678075526667     0.270319285000     0.214823000000    -0.014302   
C229     C      0.719064076667     0.258859900000     0.230147660000    -0.043317   
C230     C      0.683587233333     0.200535820000     0.026511140000     0.000652   
C231     C      0.924656966667     0.211342275000     0.019840255000    -12.2852    
C232     C      0.966996886667     0.206363950000     0.022916585000     5.08432    
C233     C      0.874732910000     0.217167150000     0.016243525000     26.0096    
C234     C      0.770985006667     0.159349485000     0.482658200000     46.8753    
C235     C      0.809808016667     0.082328675000     0.436666100000    -3.31246    
C236     C      0.746261846667     0.011832385000     0.406844600000     16.8364    
C237     C      0.811769133333     0.494557380000     0.438798850000     4.44516    
C238     C      0.783485143333     0.416156200000     0.389505180000    -0.898978   
C239     C      0.741100540000     0.062332115000     0.461942525000    -2.69133    
C240     C      0.808078666667     0.116593500000     0.449411550000     7.30308    
C241     C      0.748024340000     0.477961800000     0.393493850000    -32.6068    
C242     C      0.813502720000     0.460283130000     0.426068300000    -4.89494    
C243     C      0.739336966667     0.096189945000     0.475312770000     5.73071    
C244     C      0.772821773333     0.123623730000     0.468967100000    -15.3419    
C245     C      0.781648900000     0.451888325000     0.403186530000     11.7579    
C246     C      0.776313666667     0.055518475000     0.442860125000     2.9808     
C247     C      0.778148910000     0.020010875000     0.429259030000    -3.99365    
C248     C      0.842108010000     0.145098250000     0.441294850000    -3.89801    
C249     C      0.825376153333     0.172499580000     0.424156800000     2.93538    
C250     C      0.857051366667     0.200287475000     0.417431830000    -2.69483    
C251     C      0.905302633333     0.201113565000     0.428036185000     3.11364    
C252     C      0.922128833333     0.173910470000     0.445132165000    -4.75463    
C253     C      0.890744633333     0.145822465000     0.451639475000     4.82446    
C254     C      0.715839876667     0.470788900000     0.368850530000    -19.4162    
C255     C      0.734962443333     0.471592100000     0.342916100000     8.77134    
C256     C      0.704998776667     0.463287175000     0.319692900000    -3.59226    
C257     C      0.989399116667     0.453707575000     0.322261500000     2.71276    
C258     C      0.970187933333     0.452828400000     0.348042725000    -0.207852   
C259     C      0.999875533333     0.461557030000     0.371301450000    -2.43291    
C260     C      0.847460200000     0.433150680000     0.437577220000     1.89114    
C261     C      0.829726010000     0.405093075000     0.453034450000    -0.672218   
C262     C      0.861499166667     0.378581525000     0.462925800000     1.21667    
C263     C      0.910905300000     0.379683800000     0.457154275000    -0.044241   
C264     C      0.928741933333     0.407548300000     0.441747220000    -0.234749   
C265     C      0.897206966667     0.434373400000     0.432102700000    -0.45902    
C266     C      0.703559030000     0.101975750000     0.496581675000    -1.80767    
C267     C      0.718900860000     0.102021740000     0.024226310000    -1.57701    
C268     C      0.685446823333     0.109008775000     0.044292865000     0.635204   
C269     C      0.970093400000     0.116427550000     0.036868690000    -0.039788   
C270     C      0.954638480000     0.116453355000     0.009367345000    -0.747818   
C271     C      0.987839000000     0.109030835000     0.489240700000     0.662751   
C272     C      0.728468476667     0.412492900000     0.287190400000     3.61654    
C273     C      0.790964400000     0.488451600000     0.234553175000     0.265478   
C274     C      0.755966466667     0.443854950000     0.294656575000     0.994255   
C275     C      0.779122093333     0.481986100000     0.207167240000     0.076918   
C276     C      0.767815833333     0.450300650000     0.322049050000     0.922903   
C277     C      0.792869756667     0.005722700000     0.187002400000    -1.77938    
C278     C      0.754096600000     0.426543450000     0.342176615000     5.76569    
C279     C      0.682168486667     0.357771400000     0.298020850000     0.841227   
C280     C      0.702912950000     0.326455770000     0.286446750000     0.49193    
C281     C      0.673197690000     0.299867450000     0.273072570000     0.015731   
C282     C      0.956076100000     0.304722050000     0.270455630000    -0.508435   
C283     C      0.935379086667     0.336495520000     0.280734050000     1.27596    
C284     C      0.964975533333     0.363137100000     0.294114830000    -1.28225    
C285     C      0.864867646667     0.074473320000     0.231160450000    -0.02001    
C286     C      0.915383320000     0.069068670000     0.235066115000    -0.049896   
C287     C      0.945016733333     0.095690070000     0.248448415000    -0.01663    
C288     C      0.924360700000     0.127477585000     0.258727700000    -0.035341   
C289     C      0.873916400000     0.132371070000     0.256111115000    -0.024596   
C290     C      0.844169856667     0.105802415000     0.242736850000    -0.045775   
C291     C      0.710850496667     0.406196685000     0.258400680000    -1.18761    
C292     C      0.669789560000     0.424684880000     0.248083370000    -0.417808   
C293     C      0.987030300000     0.419251470000     0.220842100000     0.592281   
C294     C      0.678532476667     0.395418850000     0.203796750000     1.50147    
C295     C      0.719509110000     0.376988300000     0.213964015000    -0.85254    
C296     C      0.735743436667     0.382371550000     0.241184235000     0.813077   
C297     C      0.836064220000     0.026117145000     0.270804300000     0.587513   
C298     C      0.811134346667     0.049939035000     0.288004850000    -0.273838   
C299     C      0.827254920000     0.055270135000     0.315248070000     0.204943   
C300     C      0.868152000000     0.036782800000     0.325456950000     0.022681   
C301     C      0.893031756667     0.012963355000     0.308428050000     0.689646   
C302     C      0.877060413333     0.007584035000     0.281162920000    -0.869979   
C303     C      0.832805873333     0.043757615000     0.221502170000     0.020992   
C304     C      0.714190606667     0.388507600000     0.307681800000    -14.3958    
C305     C      0.818488526667     0.019800365000     0.242007630000    -0.271328   
S306     S      0.973377866667     0.216545835000     0.470138450000     3.10729    
S307     S      0.918210566667     0.362835500000     0.404177800000    -4.84362    
S308     S      0.681499440000     0.302887230000     0.478465950000     8.84305    
S309     S      0.844686500000     0.362757100000     0.455040125000     0.050881   
S310     S      0.778113453333     0.488457350000     0.153206020000     2.17637    
S311     S      0.769083390000     0.443774225000     0.375910135000    -1.00093    
N312     N      0.827841283333     0.370036700000     0.374160650000    -26.0573    
N313     N      0.728854873333     0.205984665000     0.498158425000     1.9714     
N314     N      0.760919800000     0.304957120000     0.434414100000     0.24776    
N315     N      0.787738093333     0.293540050000     0.453526250000    -0.823809   
N316     N      0.872589490000     0.204084000000     0.046348530000     16.8532    
N317     N      0.677677473333     0.068768130000     0.154650400000     0.08211    
N318     N      0.952929120000     0.061876170000     0.116311370000     0.007361   
N319     N      0.806158690000     0.203038650000     0.011913040000    -177.444    
N320     N      0.816140513333     0.096560770000     0.091428375000    -0.078326   
N321     N      0.750911100000     0.177800850000     0.119761735000    -0.379861   
N322     N      0.745852853333     0.167855010000     0.048704880000     0.77124    
N323     N      0.688424423333     0.094546395000     0.082665650000    -0.007862   
N324     N      0.820029606667     0.037083985000     0.193977015000    -0.017603   
N325     N      0.726978476667     0.395163925000     0.335206900000     1.27694    
N326     N      0.778931210000     0.460678550000     0.252987450000     0.258693   
N327     N      0.767996826667     0.471636150000     0.276228000000     0.134367   
O328     O      0.936980566667     0.212549580000     0.491701425000    -3.81482    
O329     O      0.954195300000     0.243713930000     0.450301470000    -1.1237     
O330     O      0.979214033333     0.177077530000     0.452537715000    -7.70272    
O331     O      0.933882833333     0.396881730000     0.419858050000     1.38787    
O332     O      0.932875666667     0.331009300000     0.420894325000     1.8909     
O333     O      0.949885566667     0.360005470000     0.376053200000     7.93372    
O334     O      0.997498113333     0.315432875000     0.451002775000    -6.16877    
O335     O      0.971050633333     0.295745430000     0.494792800000    -2.03775    
O336     O      0.714929386667     0.336017670000     0.494595530000    -1.03231    
O337     O      0.881169033333     0.337115170000     0.467340750000    -0.617669   
O338     O      0.866477666667     0.400201950000     0.455551030000    -0.937453   
O339     O      0.795518606667     0.364508330000     0.474040950000    -0.285341   
O340     O      0.870262466667     0.336807280000     0.380348325000    -37.6797    
O341     O      0.683435676667     0.402809085000     0.320345225000    -2.44612    
O342     O      0.713367940000     0.359259550000     0.349079430000    -1.32204    
O343     O      0.840330223333     0.380356820000     0.351614100000    -346.065    
O344     O      0.811489573333     0.391285030000     0.033767720000    -0.375151   
O345     O      0.738959973333     0.379722265000     0.166769775000     1.38296    
O346     O      0.730739910000     0.387457700000     0.031912875000    -0.238782   
O347     O      0.819709666667     0.383549570000     0.168624600000    -0.269943   
O348     O      0.949529500000     0.031168905000     0.102592355000    -0.198325   
O349     O      0.917170683333     0.084770560000     0.114450950000    -0.089483   
O350     O      0.767645120000     0.223226025000     0.009082470000     19.361     
O351     O      0.823643233333     0.187217310000     0.490549900000     65.6328    
O352     O      0.737289673333     0.149924530000     0.025724990000     3.71113    
O353     O      0.709376716667     0.177029950000     0.063349030000    -0.439875   
O354     O      0.980085513333     0.108240330000     0.074713090000    -0.209897   
O355     O      0.718738880000     0.084191075000     0.064476130000    -0.193066   
O356     O      0.951722720000     0.005887960000     0.218022020000    -0.377796   
O357     O      0.926014033333     0.116780975000     0.142736940000    -0.210577   
O358     O      0.855567700000     0.092366750000     0.154927760000    -0.504567   
O359     O      0.688835700000     0.030302180000     0.205831230000    -0.493905   
O360     O      0.797971376667     0.152653010000     0.170052590000    -0.181258   
O361     O      0.749035243333     0.282401500000     0.362014600000    -10.2517    
O362     O      0.723668733333     0.179195540000     0.169942200000    -0.227444   
O363     O      0.823337883333     0.255859000000     0.362125000000    -0.4944     
O364     O      0.712235133333     0.218187870000     0.011289665000    -6.36919    
O365     O      0.697976786667     0.177889260000     0.044825030000    -0.831551   
O366     O      0.860351443333     0.239810650000     0.497917350000     60.3733    
O367     O      0.846087900000     0.199497300000     0.031464985000    -62.916     
O368     O      0.811261643333     0.175510375000     0.490561300000    -112.12     
O369     O      0.743208290000     0.399993200000     0.381605350000     1.55149    
O370     O      0.825337390000     0.401663800000     0.385666250000     20.6793    
O371     O      0.729132546667     0.173839750000     0.486500400000    -13.1326    
O372     O      0.735885600000     0.462306400000     0.153624800000    -0.373177   
O373     O      0.764236013333     0.016861615000     0.133326950000    -0.448934   
O374     O      0.826563656667     0.465396350000     0.142328665000    -4.2129     
O375     O      0.725967720000     0.464367900000     0.385904430000     30.4748    
O376     O      0.783407433333     0.415396870000     0.395722030000    -5.42361    
O377     O      0.816387453333     0.472977150000     0.375242850000     4.15575    
F378     F      0.843373756667     0.075249970000     0.417773950000     0.199233   
F379     F      0.714252533333     0.037170930000     0.397690500000    -3.27043    
F380     F      0.842040816667     0.002934550000     0.460861750000    -1.96342    
F381     F      0.709268050000     0.035696550000     0.467916130000     0.164949   
Zn0      Zn     0.800988446667     0.085275920000     0.663212240000     1.61648    
Zn1      Zn     0.739776890000     0.036131535000     0.696521450000     1.23312    
Cu2      Cu     0.827986450000     0.209583100000     0.523929905000     86.6219    
Cu3      Cu     0.727299273333     0.207324625000     0.519156590000     2.62446    
Cu4      Cu     0.825674980000     0.372567350000     0.853000375000     268.169    
Cu5      Cu     0.726169556667     0.367586730000     0.847184800000    -2.23077    
H6       H      0.946588433333     0.172182290000     0.943581750000    -0.870692   
H7       H      0.984571120000     0.362625450000     0.882477015000    -3.65138    
H8       H      0.724423363333     0.326338680000     0.512607335000    -0.413114   
H9       H      0.808588026667     0.370614170000     0.992767780000    -0.046142   
H10      H      0.980050633333     0.255992550000     0.890318650000     0.053457   
H11      H      0.979526620000     0.267582475000     0.854795550000     0.350159   
H12      H      0.674017530000     0.226036580000     0.865729330000     0.219907   
H13      H      0.737610390000     0.272213100000     0.857917800000     7.4584     
H14      H      0.737932126667     0.260380150000     0.892995300000    -0.124264   
H15      H      0.688739130000     0.316258670000     0.903611125000     0.472245   
H16      H      0.684842786667     0.327201275000     0.869961750000     0.393419   
H17      H      0.931795576667     0.258309000000     0.943111300000     0.949423   
H18      H      0.934936500000     0.210745035000     0.950931450000     0.445026   
H19      H      0.920973620000     0.223977060000     0.916497530000     1.47592    
H20      H      0.845883100000     0.203608530000     0.938139470000    -0.761785   
H21      H      0.843059733333     0.250226450000     0.929460615000    -0.644198   
H22      H      0.864686033333     0.269888950000     0.977730650000    -3.97614    
H23      H      0.876791566667     0.225677090000     0.986648830000    -40.0403    
H24      H      0.986424683333     0.366821080000     0.820798665000    -6.49212    
H25      H      0.695680896667     0.393293830000     0.802593600000     9.38741    
H26      H      0.678435493333     0.348118275000     0.790283650000    -1.12629    
H27      H      0.760007740000     0.344989270000     0.812886250000     0.128867   
H28      H      0.717735946667     0.322277050000     0.831415650000     0.120218   
H29      H      0.708974263333     0.381739170000     0.861716450000    -2.25354    
H30      H      0.753681666667     0.401826920000     0.844901850000    -3.06993    
H31      H      0.899660766667     0.142231050000     0.515996815000     0.959394   
H32      H      0.845811933333     0.115438230000     0.521386445000    -0.595424   
H33      H      0.879693786667     0.107300365000     0.991301500000    -1.43481    
H34      H      0.805473900000     0.142055110000     0.978844435000    -8.29063    
H35      H      0.859159100000     0.168154120000     0.975303770000    -17.8808    
H36      H      0.845713276667     0.201255470000     0.520360350000    -59.7131    
H37      H      0.800621633333     0.171471925000     0.526871680000    -48.4511    
H38      H      0.877622046667     0.408463420000     0.545761105000    -0.059299   
H39      H      0.912031666667     0.490957350000     0.676082450000     1.03532    
H40      H      0.991016033333     0.485644130000     0.514733140000     0.037932   
H41      H      0.949906900000     0.454649100000     0.996417730000     0.053457   
H42      H      0.933695653333     0.001211820000     0.999895800000     0.045672   
H43      H      0.886957900000     0.469257830000     0.532276570000     0.029638   
H44      H      0.933248666667     0.495042500000     0.551305275000     0.011088   
H45      H      0.988060833333     0.458323550000     0.667120665000    -2.16969    
H46      H      0.680796306667     0.423964000000     0.598631730000    -3.11845    
H47      H      0.710141776667     0.444453450000     0.629246710000     2.06497    
H48      H      0.732902766667     0.402685285000     0.615079125000    -5.54135    
H49      H      0.685150386667     0.390711070000     0.655508350000    -23.605     
H50      H      0.990916410000     0.370095500000     0.625057830000    -2.29134    
H51      H      0.945171333333     0.478139700000     0.636465965000     0.215718   
H52      H      0.987053613333     0.485157500000     0.665855050000     0.482424   
H53      H      0.981740400000     0.018990695000     0.640350625000     0.026621   
H54      H      0.724275006667     0.483011800000     0.635812200000    -0.995266   
H55      H      0.683325940000     0.477452950000     0.606331200000    -0.802203   
H56      H      0.986484350000     0.417947680000     0.624698200000    -6.65864    
H57      H      0.691764250000     0.426556250000     0.653996950000    -1.10608    
H58      H      0.886156400000     0.472797575000     0.528576605000     0.009015   
H59      H      0.860270100000     0.016256390000     0.537171595000    -0.037688   
H60      H      0.908447433333     0.498089375000     0.558858925000     0.096223   
H61      H      0.803832860000     0.467425250000     0.549076650000     0.063443   
H62      H      0.827224940000     0.491493950000     0.579118340000     0.083896   
H63      H      0.887662253333     0.445377500000     0.587980420000     0.165295   
H64      H      0.873381416667     0.419779420000     0.558514140000     0.051871   
H65      H      0.685266480000     0.460304900000     0.558497360000    -0.092381   
H66      H      0.906616686667     0.380764500000     0.615273880000    -1.85027    
H67      H      0.994325966667     0.353260575000     0.587330930000     0.301968   
H68      H      0.833853283333     0.470631720000     0.653456760000     2.13578    
H69      H      0.909594033333     0.354118800000     0.567928440000    -0.332121   
H70      H      0.927901033333     0.206429350000     0.577893225000     1.84163    
H71      H      0.729980920000     0.075360360000     0.687547625000    -0.165138   
H72      H      0.791528033333     0.103915550000     0.660070000000    -1.01966    
H73      H      0.876833320000     0.178786800000     0.611565850000    -1.00775    
H74      H      0.847453300000     0.108949200000     0.585466815000     0.101779   
H75      H      0.849363090000     0.045942635000     0.585915780000     0.03156    
H76      H      0.789005090000     0.044184280000     0.598387650000     0.046008   
H77      H      0.840162913333     0.059661470000     0.620848545000     0.057728   
H78      H      0.739040553333     0.167242840000     0.637414115000     0.165741   
H79      H      0.732755700000     0.229821325000     0.634381560000    -0.091354   
H80      H      0.759770780000     0.228485270000     0.601879560000    -0.568014   
H81      H      0.797337283333     0.221361580000     0.632716375000    -0.14841    
H82      H      0.884491333333     0.206345600000     0.747845365000     0.040387   
H83      H      0.955578433333     0.182966550000     0.774397880000     0.010106   
H84      H      0.944487833333     0.154755430000     0.818681600000     0.041477   
H85      H      0.861558666667     0.148582900000     0.835976550000     0.055155   
H86      H      0.789849906667     0.170513230000     0.809381200000     0.038396   
H87      H      0.995049433333     0.228083120000     0.784987720000    -0.080389   
H88      H      0.923392553333     0.250117900000     0.758180320000     0.054372   
H89      H      0.933236300000     0.275947750000     0.713025435000     0.026157   
H90      H      0.682361303333     0.281808375000     0.695141820000    -0.01461    
H91      H      0.754894400000     0.262305320000     0.722222910000     0.067816   
H92      H      0.773023966667     0.478402585000     0.840745150000    -2.82176    
H93      H      0.719767630000     0.464035950000     0.799720300000     0.694058   
H94      H      0.966394343333     0.446941585000     0.804282150000     0.231018   
H95      H      0.932357266667     0.445240300000     0.850009400000     5.0033     
H96      H      0.984791466667     0.460458600000     0.891197620000     0.998543   
H97      H      0.791359693333     0.403670600000     0.957233500000     0.21835    
H98      H      0.847785710000     0.357042150000     0.974907370000    -0.403292   
H99      H      0.935344000000     0.358939100000     0.964600350000     0.15689    
H100     H      0.966953233333     0.408274050000     0.937187670000     0.004654   
H101     H      0.911266700000     0.455652120000     0.919967920000     0.835932   
H102     H      0.756715446667     0.096887575000     0.530171575000    -0.341659   
H103     H      0.697316416667     0.108916870000     0.565590200000    -0.054085   
H104     H      0.944369753333     0.122183450000     0.552425265000     0.100191   
H105     H      0.916981366667     0.122367350000     0.503647325000     1.00216    
H106     H      0.975629200000     0.109449595000     0.967987800000     0.165423   
H107     H      0.787845880000     0.172419400000     0.916198450000    -0.876338   
H108     H      0.844126200000     0.221316100000     0.904149150000     0.816528   
H109     H      0.929622790000     0.222836360000     0.923022180000    -1.65973    
H110     H      0.959431066667     0.174675880000     0.953430600000     8.13013    
H111     H      0.903979380000     0.125065200000     0.965104750000    -1.64187    
H112     H      0.787085860000     0.475306350000     0.827726335000     2.74054    
H113     H      0.742122713333     0.322835685000     0.787660600000     0.223715   
H114     H      0.689350626667     0.275695235000     0.764444620000     0.039062   
H115     H      0.933141566667     0.284185530000     0.760000825000     0.191969   
H116     H      0.896475400000     0.340749700000     0.777934370000     1.19097    
H117     H      0.948698043333     0.388262550000     0.801007030000     2.70163    
H118     H      0.931632956667     0.043930410000     0.728173650000     0.075741   
H119     H      0.983916300000     0.091401460000     0.751248800000     0.012171   
H120     H      0.947326400000     0.147994460000     0.769182600000     0.029859   
H121     H      0.857794000000     0.156556070000     0.764735050000     0.05553    
H122     H      0.804963310000     0.109451530000     0.741522700000     0.025257   
H123     H      0.983736233333     0.443260550000     0.761128800000     0.096675   
H124     H      0.955368566667     0.433556850000     0.712932080000    -0.084276   
H125     H      0.999424433333     0.391300800000     0.682699300000    -2.33331    
H126     H      0.738786330000     0.358624370000     0.700729150000     0.072728   
H127     H      0.767745853333     0.368195115000     0.748824640000     0.440579   
H128     H      0.779175690000     0.064143775000     0.780332265000     0.097472   
H129     H      0.807936466667     0.073620320000     0.828472200000     0.009666   
H130     H      0.880488000000     0.040847780000     0.846574600000     0.350469   
H131     H      0.924628556667     0.498613330000     0.816369475000     0.916578   
H132     H      0.896469133333     0.488999900000     0.768133650000     0.974884   
H133     H      0.815164346667     0.453707850000     0.624718020000     1.25545    
H134     H      0.818347433333     0.485241770000     0.893485700000    -0.171261   
H135     H      0.759808926667     0.456981300000     0.701526060000    -0.084631   
C136     C      0.852899610000     0.361879530000     0.898713975000     8.98926    
C137     C      0.698466076667     0.230152200000     0.984650900000     1.11619    
C138     C      0.827380033333     0.348166650000     0.920937120000    -0.259032   
C139     C      0.717220066667     0.263060870000     0.975202450000    -3.57486    
C140     C      0.783246340000     0.328920450000     0.915575625000    -1.6848     
C141     C      0.766931583333     0.265306400000     0.969268250000     3.96116    
C142     C      0.759065340000     0.333747120000     0.890096650000     8.8973     
C143     C      0.798210800000     0.238118900000     0.979308250000    -10.9666    
C144     C      0.779032180000     0.358180000000     0.871116370000    -24.3117    
C145     C      0.779197493333     0.209969685000     0.995610650000     3.70259    
C146     C      0.709722996667     0.314411300000     0.884987150000    -2.7165     
C147     C      0.716750646667     0.274366700000     0.876692350000     1.51813    
C148     C      0.667760403333     0.254879050000     0.871577600000    -1.15272    
C149     C      0.852303433333     0.241548850000     0.973290680000    -5.51934    
C150     C      0.861280133333     0.230980115000     0.943413700000     4.26093    
C151     C      0.915700800000     0.231036560000     0.938251450000    -1.45904    
C152     C      0.742471446667     0.374744175000     0.850899750000     6.21042    
C153     C      0.728658563333     0.349708950000     0.825769215000    -1.01224    
C154     C      0.686380930000     0.365565420000     0.808816950000     2.07499    
C155     C      0.815704300000     0.185086265000     0.509901045000     201.4      
C156     C      0.836044866667     0.156072260000     0.990410950000     44.1929    
C157     C      0.867156666667     0.128576280000     0.505803110000    -9.74687    
C158     C      0.875810623333     0.361146180000     0.862190450000     125.901    
C159     C      0.677932420000     0.378622920000     0.838633550000     7.52782    
C160     C      0.923373323333     0.367330580000     0.853864200000    -44.7745    
C161     C      0.963732366667     0.372419850000     0.846995385000     25.3649    
C162     C      0.771115590000     0.394297630000     0.545405945000    -0.019799   
C163     C      0.778385420000     0.391045350000     0.656989215000     0.038071   
C164     C      0.946241280000     0.438030950000     0.549978735000    -0.555822   
C165     C      0.952672183333     0.416698950000     0.641054465000    -12.7403    
C166     C      0.994781713333     0.437074550000     0.560348390000     1.54801    
C167     C      0.776248133333     0.406221650000     0.630036235000     0.24112    
C168     C      0.907920266667     0.404565125000     0.628804160000     6.0783     
C169     C      0.678734400000     0.406869150000     0.574261195000     0.496878   
C170     C      0.865051010000     0.424319200000     0.632733600000    -2.74895    
C171     C      0.981334466667     0.376760700000     0.576648825000    -0.307439   
C172     C      0.866636216667     0.455163450000     0.650224270000     2.77558    
C173     C      0.933304250000     0.377307000000     0.565900440000     0.090058   
C174     C      0.910865346667     0.466880050000     0.662882390000    -3.64307    
C175     C      0.915435253333     0.408086950000     0.553161885000     0.09725    
C176     C      0.953819800000     0.448162900000     0.657940075000     6.47372    
C177     C      0.730729486667     0.412641375000     0.616737230000     3.70836    
C178     C      0.771648566667     0.405645450000     0.574319265000     0.455252   
C179     C      0.816004256667     0.417510000000     0.588351845000    -0.435349   
C180     C      0.926972866667     0.471575675000     0.536811380000     0.112139   
C181     C      0.952039380000     0.478646350000     0.510437410000    -0.036946   
C182     C      0.999110520000     0.396548780000     0.635837330000     41.0598    
C183     C      0.699341576667     0.418407900000     0.618621715000     12.4903    
C184     C      0.688817120000     0.430128870000     0.631818490000    -12.0791    
C185     C      0.688569323333     0.471246550000     0.628136070000     2.98678    
C186     C      0.981353066667     0.489406350000     0.643698575000    -0.508848   
C187     C      0.856398333333     0.437304650000     0.574013560000     0.010229   
C188     C      0.837205400000     0.472681135000     0.562187965000    -0.087595   
C189     C      0.819121833333     0.414647000000     0.616809600000     0.544759   
C190     C      0.875496586667     0.491009770000     0.545678610000    -0.024558   
C191     C      0.727705170000     0.407950280000     0.588363100000    -1.0514     
C192     C      0.890718280000     0.198499950000     0.572077425000    -8.85481    
C193     C      0.721773956667     0.079425695000     0.666157185000    -0.162072   
C194     C      0.861738383333     0.183018750000     0.591178560000     3.86331    
C195     C      0.756607266667     0.095530080000     0.650597400000     0.123389   
C196     C      0.813588033333     0.172798975000     0.583814720000    -3.19129    
C197     C      0.746072466667     0.100919635000     0.622925185000    -0.026961   
C198     C      0.794834940000     0.178779365000     0.557144360000     2.96172    
C199     C      0.700193160000     0.089861600000     0.611125290000     0.155715   
C200     C      0.825390566667     0.194870785000     0.538525120000     24.2381    
C201     C      0.999334513333     0.073841655000     0.627746910000    -0.140264   
C202     C      0.783183300000     0.155574560000     0.604259430000     0.952606   
C203     C      0.783284766667     0.118738225000     0.606558050000    -0.231616   
C204     C      0.823912700000     0.059698375000     0.599720950000    -0.100974   
C205     C      0.760988723333     0.216356800000     0.622242510000     0.112019   
C206     C      0.975615200000     0.028285540000     0.704491735000     0.065116   
C207     C      0.902121566667     0.094383390000     0.656267240000     0.411585   
C208     C      0.949819983333     0.051484950000     0.687565625000    -0.00061    
C209     C      0.927923533333     0.071177930000     0.673197790000    -0.150734   
C210     C      0.764905393333     0.171025290000     0.682072775000     0.257916   
C211     C      0.782021400000     0.263909070000     0.850007685000     1.72546    
C212     C      0.772288013333     0.252249630000     0.822413920000    -1.49174    
C213     C      0.774351020000     0.182301910000     0.709737570000    -0.074654   
C214     C      0.756933966667     0.229006710000     0.771427750000    -0.291506   
C215     C      0.789043516667     0.205086450000     0.760828200000     0.093985   
C216     C      0.781856426667     0.192087665000     0.733043360000     0.007816   
C217     C      0.764446210000     0.242187260000     0.799177885000     0.667758   
C218     C      0.831885150000     0.190910175000     0.776880325000    -0.0343     
C219     C      0.878985400000     0.193684430000     0.767009950000    -0.047292   
C220     C      0.919380586667     0.180588035000     0.782037885000    -0.033639   
C221     C      0.913152813333     0.164626730000     0.806991900000    -0.036156   
C222     C      0.866417586667     0.161189950000     0.816757680000    -0.024432   
C223     C      0.825883633333     0.173912915000     0.801693800000    -0.036201   
C224     C      0.713729953333     0.242788750000     0.755399450000     0.046484   
C225     C      0.666803140000     0.240015075000     0.765506685000     0.110918   
C226     C      0.959363420000     0.252174850000     0.750301000000    -0.156446   
C227     C      0.964918950000     0.266948400000     0.724872250000    -0.11525    
C228     C      0.678075526667     0.270319285000     0.714823000000    -0.014302   
C229     C      0.719064076667     0.258859900000     0.730147660000    -0.043317   
C230     C      0.683587233333     0.200535820000     0.526511140000     0.000652   
C231     C      0.924656966667     0.211342275000     0.519840255000    -12.2852    
C232     C      0.966996886667     0.206363950000     0.522916585000     5.08432    
C233     C      0.874732910000     0.217167150000     0.516243525000     26.0096    
C234     C      0.770985006667     0.159349485000     0.982658200000     46.8753    
C235     C      0.809808016667     0.082328675000     0.936666100000    -3.31246    
C236     C      0.746261846667     0.011832385000     0.906844600000     16.8364    
C237     C      0.811769133333     0.494557380000     0.938798850000     4.44516    
C238     C      0.783485143333     0.416156200000     0.889505180000    -0.898978   
C239     C      0.741100540000     0.062332115000     0.961942525000    -2.69133    
C240     C      0.808078666667     0.116593500000     0.949411550000     7.30308    
C241     C      0.748024340000     0.477961800000     0.893493850000    -32.6068    
C242     C      0.813502720000     0.460283130000     0.926068300000    -4.89494    
C243     C      0.739336966667     0.096189945000     0.975312770000     5.73071    
C244     C      0.772821773333     0.123623730000     0.968967100000    -15.3419    
C245     C      0.781648900000     0.451888325000     0.903186530000     11.7579    
C246     C      0.776313666667     0.055518475000     0.942860125000     2.9808     
C247     C      0.778148910000     0.020010875000     0.929259030000    -3.99365    
C248     C      0.842108010000     0.145098250000     0.941294850000    -3.89801    
C249     C      0.825376153333     0.172499580000     0.924156800000     2.93538    
C250     C      0.857051366667     0.200287475000     0.917431830000    -2.69483    
C251     C      0.905302633333     0.201113565000     0.928036185000     3.11364    
C252     C      0.922128833333     0.173910470000     0.945132165000    -4.75463    
C253     C      0.890744633333     0.145822465000     0.951639475000     4.82446    
C254     C      0.715839876667     0.470788900000     0.868850530000    -19.4162    
C255     C      0.734962443333     0.471592100000     0.842916100000     8.77134    
C256     C      0.704998776667     0.463287175000     0.819692900000    -3.59226    
C257     C      0.989399116667     0.453707575000     0.822261500000     2.71276    
C258     C      0.970187933333     0.452828400000     0.848042725000    -0.207852   
C259     C      0.999875533333     0.461557030000     0.871301450000    -2.43291    
C260     C      0.847460200000     0.433150680000     0.937577220000     1.89114    
C261     C      0.829726010000     0.405093075000     0.953034450000    -0.672218   
C262     C      0.861499166667     0.378581525000     0.962925800000     1.21667    
C263     C      0.910905300000     0.379683800000     0.957154275000    -0.044241   
C264     C      0.928741933333     0.407548300000     0.941747220000    -0.234749   
C265     C      0.897206966667     0.434373400000     0.932102700000    -0.45902    
C266     C      0.703559030000     0.101975750000     0.996581675000    -1.80767    
C267     C      0.718900860000     0.102021740000     0.524226310000    -1.57701    
C268     C      0.685446823333     0.109008775000     0.544292865000     0.635204   
C269     C      0.970093400000     0.116427550000     0.536868690000    -0.039788   
C270     C      0.954638480000     0.116453355000     0.509367345000    -0.747818   
C271     C      0.987839000000     0.109030835000     0.989240700000     0.662751   
C272     C      0.728468476667     0.412492900000     0.787190400000     3.61654    
C273     C      0.790964400000     0.488451600000     0.734553175000     0.265478   
C274     C      0.755966466667     0.443854950000     0.794656575000     0.994255   
C275     C      0.779122093333     0.481986100000     0.707167240000     0.076918   
C276     C      0.767815833333     0.450300650000     0.822049050000     0.922903   
C277     C      0.792869756667     0.005722700000     0.687002400000    -1.77938    
C278     C      0.754096600000     0.426543450000     0.842176615000     5.76569    
C279     C      0.682168486667     0.357771400000     0.798020850000     0.841227   
C280     C      0.702912950000     0.326455770000     0.786446750000     0.49193    
C281     C      0.673197690000     0.299867450000     0.773072570000     0.015731   
C282     C      0.956076100000     0.304722050000     0.770455630000    -0.508435   
C283     C      0.935379086667     0.336495520000     0.780734050000     1.27596    
C284     C      0.964975533333     0.363137100000     0.794114830000    -1.28225    
C285     C      0.864867646667     0.074473320000     0.731160450000    -0.02001    
C286     C      0.915383320000     0.069068670000     0.735066115000    -0.049896   
C287     C      0.945016733333     0.095690070000     0.748448415000    -0.01663    
C288     C      0.924360700000     0.127477585000     0.758727700000    -0.035341   
C289     C      0.873916400000     0.132371070000     0.756111115000    -0.024596   
C290     C      0.844169856667     0.105802415000     0.742736850000    -0.045775   
C291     C      0.710850496667     0.406196685000     0.758400680000    -1.18761    
C292     C      0.669789560000     0.424684880000     0.748083370000    -0.417808   
C293     C      0.987030300000     0.419251470000     0.720842100000     0.592281   
C294     C      0.678532476667     0.395418850000     0.703796750000     1.50147    
C295     C      0.719509110000     0.376988300000     0.713964015000    -0.85254    
C296     C      0.735743436667     0.382371550000     0.741184235000     0.813077   
C297     C      0.836064220000     0.026117145000     0.770804300000     0.587513   
C298     C      0.811134346667     0.049939035000     0.788004850000    -0.273838   
C299     C      0.827254920000     0.055270135000     0.815248070000     0.204943   
C300     C      0.868152000000     0.036782800000     0.825456950000     0.022681   
C301     C      0.893031756667     0.012963355000     0.808428050000     0.689646   
C302     C      0.877060413333     0.007584035000     0.781162920000    -0.869979   
C303     C      0.832805873333     0.043757615000     0.721502170000     0.020992   
C304     C      0.714190606667     0.388507600000     0.807681800000    -14.3958    
C305     C      0.818488526667     0.019800365000     0.742007630000    -0.271328   
S306     S      0.973377866667     0.216545835000     0.970138450000     3.10729    
S307     S      0.918210566667     0.362835500000     0.904177800000    -4.84362    
S308     S      0.681499440000     0.302887230000     0.978465950000     8.84305    
S309     S      0.844686500000     0.362757100000     0.955040125000     0.050881   
S310     S      0.778113453333     0.488457350000     0.653206020000     2.17637    
S311     S      0.769083390000     0.443774225000     0.875910135000    -1.00093    
N312     N      0.827841283333     0.370036700000     0.874160650000    -26.0573    
N313     N      0.728854873333     0.205984665000     0.998158425000     1.9714     
N314     N      0.760919800000     0.304957120000     0.934414100000     0.24776    
N315     N      0.787738093333     0.293540050000     0.953526250000    -0.823809   
N316     N      0.872589490000     0.204084000000     0.546348530000     16.8532    
N317     N      0.677677473333     0.068768130000     0.654650400000     0.08211    
N318     N      0.952929120000     0.061876170000     0.616311370000     0.007361   
N319     N      0.806158690000     0.203038650000     0.511913040000    -177.444    
N320     N      0.816140513333     0.096560770000     0.591428375000    -0.078326   
N321     N      0.750911100000     0.177800850000     0.619761735000    -0.379861   
N322     N      0.745852853333     0.167855010000     0.548704880000     0.77124    
N323     N      0.688424423333     0.094546395000     0.582665650000    -0.007862   
N324     N      0.820029606667     0.037083985000     0.693977015000    -0.017603   
N325     N      0.726978476667     0.395163925000     0.835206900000     1.27694    
N326     N      0.778931210000     0.460678550000     0.752987450000     0.258693   
N327     N      0.767996826667     0.471636150000     0.776228000000     0.134367   
O328     O      0.936980566667     0.212549580000     0.991701425000    -3.81482    
O329     O      0.954195300000     0.243713930000     0.950301470000    -1.1237     
O330     O      0.979214033333     0.177077530000     0.952537715000    -7.70272    
O331     O      0.933882833333     0.396881730000     0.919858050000     1.38787    
O332     O      0.932875666667     0.331009300000     0.920894325000     1.8909     
O333     O      0.949885566667     0.360005470000     0.876053200000     7.93372    
O334     O      0.997498113333     0.315432875000     0.951002775000    -6.16877    
O335     O      0.971050633333     0.295745430000     0.994792800000    -2.03775    
O336     O      0.714929386667     0.336017670000     0.994595530000    -1.03231    
O337     O      0.881169033333     0.337115170000     0.967340750000    -0.617669   
O338     O      0.866477666667     0.400201950000     0.955551030000    -0.937453   
O339     O      0.795518606667     0.364508330000     0.974040950000    -0.285341   
O340     O      0.870262466667     0.336807280000     0.880348325000    -37.6797    
O341     O      0.683435676667     0.402809085000     0.820345225000    -2.44612    
O342     O      0.713367940000     0.359259550000     0.849079430000    -1.32204    
O343     O      0.840330223333     0.380356820000     0.851614100000    -346.065    
O344     O      0.811489573333     0.391285030000     0.533767720000    -0.375151   
O345     O      0.738959973333     0.379722265000     0.666769775000     1.38296    
O346     O      0.730739910000     0.387457700000     0.531912875000    -0.238782   
O347     O      0.819709666667     0.383549570000     0.668624600000    -0.269943   
O348     O      0.949529500000     0.031168905000     0.602592355000    -0.198325   
O349     O      0.917170683333     0.084770560000     0.614450950000    -0.089483   
O350     O      0.767645120000     0.223226025000     0.509082470000     19.361     
O351     O      0.823643233333     0.187217310000     0.990549900000     65.6328    
O352     O      0.737289673333     0.149924530000     0.525724990000     3.71113    
O353     O      0.709376716667     0.177029950000     0.563349030000    -0.439875   
O354     O      0.980085513333     0.108240330000     0.574713090000    -0.209897   
O355     O      0.718738880000     0.084191075000     0.564476130000    -0.193066   
O356     O      0.951722720000     0.005887960000     0.718022020000    -0.377796   
O357     O      0.926014033333     0.116780975000     0.642736940000    -0.210577   
O358     O      0.855567700000     0.092366750000     0.654927760000    -0.504567   
O359     O      0.688835700000     0.030302180000     0.705831230000    -0.493905   
O360     O      0.797971376667     0.152653010000     0.670052590000    -0.181258   
O361     O      0.749035243333     0.282401500000     0.862014600000    -10.2517    
O362     O      0.723668733333     0.179195540000     0.669942200000    -0.227444   
O363     O      0.823337883333     0.255859000000     0.862125000000    -0.4944     
O364     O      0.712235133333     0.218187870000     0.511289665000    -6.36919    
O365     O      0.697976786667     0.177889260000     0.544825030000    -0.831551   
O366     O      0.860351443333     0.239810650000     0.997917350000     60.3733    
O367     O      0.846087900000     0.199497300000     0.531464985000    -62.916     
O368     O      0.811261643333     0.175510375000     0.990561300000    -112.12     
O369     O      0.743208290000     0.399993200000     0.881605350000     1.55149    
O370     O      0.825337390000     0.401663800000     0.885666250000     20.6793    
O371     O      0.729132546667     0.173839750000     0.986500400000    -13.1326    
O372     O      0.735885600000     0.462306400000     0.653624800000    -0.373177   
O373     O      0.764236013333     0.016861615000     0.633326950000    -0.448934   
O374     O      0.826563656667     0.465396350000     0.642328665000    -4.2129     
O375     O      0.725967720000     0.464367900000     0.885904430000     30.4748    
O376     O      0.783407433333     0.415396870000     0.895722030000    -5.42361    
O377     O      0.816387453333     0.472977150000     0.875242850000     4.15575    
F378     F      0.843373756667     0.075249970000     0.917773950000     0.199233   
F379     F      0.714252533333     0.037170930000     0.897690500000    -3.27043    
F380     F      0.842040816667     0.002934550000     0.960861750000    -1.96342    
F381     F      0.709268050000     0.035696550000     0.967916130000     0.164949   
Zn0      Zn     0.800988446667     0.585275920000     0.163212240000     1.61648    
Zn1      Zn     0.739776890000     0.536131535000     0.196521450000     1.23312    
Cu2      Cu     0.827986450000     0.709583100000     0.023929905000     86.6219    
Cu3      Cu     0.727299273333     0.707324625000     0.019156590000     2.62446    
Cu4      Cu     0.825674980000     0.872567350000     0.353000375000     268.169    
Cu5      Cu     0.726169556667     0.867586730000     0.347184800000    -2.23077    
H6       H      0.946588433333     0.672182290000     0.443581750000    -0.870692   
H7       H      0.984571120000     0.862625450000     0.382477015000    -3.65138    
H8       H      0.724423363333     0.826338680000     0.012607335000    -0.413114   
H9       H      0.808588026667     0.870614170000     0.492767780000    -0.046142   
H10      H      0.980050633333     0.755992550000     0.390318650000     0.053457   
H11      H      0.979526620000     0.767582475000     0.354795550000     0.350159   
H12      H      0.674017530000     0.726036580000     0.365729330000     0.219907   
H13      H      0.737610390000     0.772213100000     0.357917800000     7.4584     
H14      H      0.737932126667     0.760380150000     0.392995300000    -0.124264   
H15      H      0.688739130000     0.816258670000     0.403611125000     0.472245   
H16      H      0.684842786667     0.827201275000     0.369961750000     0.393419   
H17      H      0.931795576667     0.758309000000     0.443111300000     0.949423   
H18      H      0.934936500000     0.710745035000     0.450931450000     0.445026   
H19      H      0.920973620000     0.723977060000     0.416497530000     1.47592    
H20      H      0.845883100000     0.703608530000     0.438139470000    -0.761785   
H21      H      0.843059733333     0.750226450000     0.429460615000    -0.644198   
H22      H      0.864686033333     0.769888950000     0.477730650000    -3.97614    
H23      H      0.876791566667     0.725677090000     0.486648830000    -40.0403    
H24      H      0.986424683333     0.866821080000     0.320798665000    -6.49212    
H25      H      0.695680896667     0.893293830000     0.302593600000     9.38741    
H26      H      0.678435493333     0.848118275000     0.290283650000    -1.12629    
H27      H      0.760007740000     0.844989270000     0.312886250000     0.128867   
H28      H      0.717735946667     0.822277050000     0.331415650000     0.120218   
H29      H      0.708974263333     0.881739170000     0.361716450000    -2.25354    
H30      H      0.753681666667     0.901826920000     0.344901850000    -3.06993    
H31      H      0.899660766667     0.642231050000     0.015996815000     0.959394   
H32      H      0.845811933333     0.615438230000     0.021386445000    -0.595424   
H33      H      0.879693786667     0.607300365000     0.491301500000    -1.43481    
H34      H      0.805473900000     0.642055110000     0.478844435000    -8.29063    
H35      H      0.859159100000     0.668154120000     0.475303770000    -17.8808    
H36      H      0.845713276667     0.701255470000     0.020360350000    -59.7131    
H37      H      0.800621633333     0.671471925000     0.026871680000    -48.4511    
H38      H      0.877622046667     0.908463420000     0.045761105000    -0.059299   
H39      H      0.912031666667     0.990957350000     0.176082450000     1.03532    
H40      H      0.991016033333     0.985644130000     0.014733140000     0.037932   
H41      H      0.949906900000     0.954649100000     0.496417730000     0.053457   
H42      H      0.933695653333     0.501211820000     0.499895800000     0.045672   
H43      H      0.886957900000     0.969257830000     0.032276570000     0.029638   
H44      H      0.933248666667     0.995042500000     0.051305275000     0.011088   
H45      H      0.988060833333     0.958323550000     0.167120665000    -2.16969    
H46      H      0.680796306667     0.923964000000     0.098631730000    -3.11845    
H47      H      0.710141776667     0.944453450000     0.129246710000     2.06497    
H48      H      0.732902766667     0.902685285000     0.115079125000    -5.54135    
H49      H      0.685150386667     0.890711070000     0.155508350000    -23.605     
H50      H      0.990916410000     0.870095500000     0.125057830000    -2.29134    
H51      H      0.945171333333     0.978139700000     0.136465965000     0.215718   
H52      H      0.987053613333     0.985157500000     0.165855050000     0.482424   
H53      H      0.981740400000     0.518990695000     0.140350625000     0.026621   
H54      H      0.724275006667     0.983011800000     0.135812200000    -0.995266   
H55      H      0.683325940000     0.977452950000     0.106331200000    -0.802203   
H56      H      0.986484350000     0.917947680000     0.124698200000    -6.65864    
H57      H      0.691764250000     0.926556250000     0.153996950000    -1.10608    
H58      H      0.886156400000     0.972797575000     0.028576605000     0.009015   
H59      H      0.860270100000     0.516256390000     0.037171595000    -0.037688   
H60      H      0.908447433333     0.998089375000     0.058858925000     0.096223   
H61      H      0.803832860000     0.967425250000     0.049076650000     0.063443   
H62      H      0.827224940000     0.991493950000     0.079118340000     0.083896   
H63      H      0.887662253333     0.945377500000     0.087980420000     0.165295   
H64      H      0.873381416667     0.919779420000     0.058514140000     0.051871   
H65      H      0.685266480000     0.960304900000     0.058497360000    -0.092381   
H66      H      0.906616686667     0.880764500000     0.115273880000    -1.85027    
H67      H      0.994325966667     0.853260575000     0.087330930000     0.301968   
H68      H      0.833853283333     0.970631720000     0.153456760000     2.13578    
H69      H      0.909594033333     0.854118800000     0.067928440000    -0.332121   
H70      H      0.927901033333     0.706429350000     0.077893225000     1.84163    
H71      H      0.729980920000     0.575360360000     0.187547625000    -0.165138   
H72      H      0.791528033333     0.603915550000     0.160070000000    -1.01966    
H73      H      0.876833320000     0.678786800000     0.111565850000    -1.00775    
H74      H      0.847453300000     0.608949200000     0.085466815000     0.101779   
H75      H      0.849363090000     0.545942635000     0.085915780000     0.03156    
H76      H      0.789005090000     0.544184280000     0.098387650000     0.046008   
H77      H      0.840162913333     0.559661470000     0.120848545000     0.057728   
H78      H      0.739040553333     0.667242840000     0.137414115000     0.165741   
H79      H      0.732755700000     0.729821325000     0.134381560000    -0.091354   
H80      H      0.759770780000     0.728485270000     0.101879560000    -0.568014   
H81      H      0.797337283333     0.721361580000     0.132716375000    -0.14841    
H82      H      0.884491333333     0.706345600000     0.247845365000     0.040387   
H83      H      0.955578433333     0.682966550000     0.274397880000     0.010106   
H84      H      0.944487833333     0.654755430000     0.318681600000     0.041477   
H85      H      0.861558666667     0.648582900000     0.335976550000     0.055155   
H86      H      0.789849906667     0.670513230000     0.309381200000     0.038396   
H87      H      0.995049433333     0.728083120000     0.284987720000    -0.080389   
H88      H      0.923392553333     0.750117900000     0.258180320000     0.054372   
H89      H      0.933236300000     0.775947750000     0.213025435000     0.026157   
H90      H      0.682361303333     0.781808375000     0.195141820000    -0.01461    
H91      H      0.754894400000     0.762305320000     0.222222910000     0.067816   
H92      H      0.773023966667     0.978402585000     0.340745150000    -2.82176    
H93      H      0.719767630000     0.964035950000     0.299720300000     0.694058   
H94      H      0.966394343333     0.946941585000     0.304282150000     0.231018   
H95      H      0.932357266667     0.945240300000     0.350009400000     5.0033     
H96      H      0.984791466667     0.960458600000     0.391197620000     0.998543   
H97      H      0.791359693333     0.903670600000     0.457233500000     0.21835    
H98      H      0.847785710000     0.857042150000     0.474907370000    -0.403292   
H99      H      0.935344000000     0.858939100000     0.464600350000     0.15689    
H100     H      0.966953233333     0.908274050000     0.437187670000     0.004654   
H101     H      0.911266700000     0.955652120000     0.419967920000     0.835932   
H102     H      0.756715446667     0.596887575000     0.030171575000    -0.341659   
H103     H      0.697316416667     0.608916870000     0.065590200000    -0.054085   
H104     H      0.944369753333     0.622183450000     0.052425265000     0.100191   
H105     H      0.916981366667     0.622367350000     0.003647325000     1.00216    
H106     H      0.975629200000     0.609449595000     0.467987800000     0.165423   
H107     H      0.787845880000     0.672419400000     0.416198450000    -0.876338   
H108     H      0.844126200000     0.721316100000     0.404149150000     0.816528   
H109     H      0.929622790000     0.722836360000     0.423022180000    -1.65973    
H110     H      0.959431066667     0.674675880000     0.453430600000     8.13013    
H111     H      0.903979380000     0.625065200000     0.465104750000    -1.64187    
H112     H      0.787085860000     0.975306350000     0.327726335000     2.74054    
H113     H      0.742122713333     0.822835685000     0.287660600000     0.223715   
H114     H      0.689350626667     0.775695235000     0.264444620000     0.039062   
H115     H      0.933141566667     0.784185530000     0.260000825000     0.191969   
H116     H      0.896475400000     0.840749700000     0.277934370000     1.19097    
H117     H      0.948698043333     0.888262550000     0.301007030000     2.70163    
H118     H      0.931632956667     0.543930410000     0.228173650000     0.075741   
H119     H      0.983916300000     0.591401460000     0.251248800000     0.012171   
H120     H      0.947326400000     0.647994460000     0.269182600000     0.029859   
H121     H      0.857794000000     0.656556070000     0.264735050000     0.05553    
H122     H      0.804963310000     0.609451530000     0.241522700000     0.025257   
H123     H      0.983736233333     0.943260550000     0.261128800000     0.096675   
H124     H      0.955368566667     0.933556850000     0.212932080000    -0.084276   
H125     H      0.999424433333     0.891300800000     0.182699300000    -2.33331    
H126     H      0.738786330000     0.858624370000     0.200729150000     0.072728   
H127     H      0.767745853333     0.868195115000     0.248824640000     0.440579   
H128     H      0.779175690000     0.564143775000     0.280332265000     0.097472   
H129     H      0.807936466667     0.573620320000     0.328472200000     0.009666   
H130     H      0.880488000000     0.540847780000     0.346574600000     0.350469   
H131     H      0.924628556667     0.998613330000     0.316369475000     0.916578   
H132     H      0.896469133333     0.988999900000     0.268133650000     0.974884   
H133     H      0.815164346667     0.953707850000     0.124718020000     1.25545    
H134     H      0.818347433333     0.985241770000     0.393485700000    -0.171261   
H135     H      0.759808926667     0.956981300000     0.201526060000    -0.084631   
C136     C      0.852899610000     0.861879530000     0.398713975000     8.98926    
C137     C      0.698466076667     0.730152200000     0.484650900000     1.11619    
C138     C      0.827380033333     0.848166650000     0.420937120000    -0.259032   
C139     C      0.717220066667     0.763060870000     0.475202450000    -3.57486    
C140     C      0.783246340000     0.828920450000     0.415575625000    -1.6848     
C141     C      0.766931583333     0.765306400000     0.469268250000     3.96116    
C142     C      0.759065340000     0.833747120000     0.390096650000     8.8973     
C143     C      0.798210800000     0.738118900000     0.479308250000    -10.9666    
C144     C      0.779032180000     0.858180000000     0.371116370000    -24.3117    
C145     C      0.779197493333     0.709969685000     0.495610650000     3.70259    
C146     C      0.709722996667     0.814411300000     0.384987150000    -2.7165     
C147     C      0.716750646667     0.774366700000     0.376692350000     1.51813    
C148     C      0.667760403333     0.754879050000     0.371577600000    -1.15272    
C149     C      0.852303433333     0.741548850000     0.473290680000    -5.51934    
C150     C      0.861280133333     0.730980115000     0.443413700000     4.26093    
C151     C      0.915700800000     0.731036560000     0.438251450000    -1.45904    
C152     C      0.742471446667     0.874744175000     0.350899750000     6.21042    
C153     C      0.728658563333     0.849708950000     0.325769215000    -1.01224    
C154     C      0.686380930000     0.865565420000     0.308816950000     2.07499    
C155     C      0.815704300000     0.685086265000     0.009901045000     201.4      
C156     C      0.836044866667     0.656072260000     0.490410950000     44.1929    
C157     C      0.867156666667     0.628576280000     0.005803110000    -9.74687    
C158     C      0.875810623333     0.861146180000     0.362190450000     125.901    
C159     C      0.677932420000     0.878622920000     0.338633550000     7.52782    
C160     C      0.923373323333     0.867330580000     0.353864200000    -44.7745    
C161     C      0.963732366667     0.872419850000     0.346995385000     25.3649    
C162     C      0.771115590000     0.894297630000     0.045405945000    -0.019799   
C163     C      0.778385420000     0.891045350000     0.156989215000     0.038071   
C164     C      0.946241280000     0.938030950000     0.049978735000    -0.555822   
C165     C      0.952672183333     0.916698950000     0.141054465000    -12.7403    
C166     C      0.994781713333     0.937074550000     0.060348390000     1.54801    
C167     C      0.776248133333     0.906221650000     0.130036235000     0.24112    
C168     C      0.907920266667     0.904565125000     0.128804160000     6.0783     
C169     C      0.678734400000     0.906869150000     0.074261195000     0.496878   
C170     C      0.865051010000     0.924319200000     0.132733600000    -2.74895    
C171     C      0.981334466667     0.876760700000     0.076648825000    -0.307439   
C172     C      0.866636216667     0.955163450000     0.150224270000     2.77558    
C173     C      0.933304250000     0.877307000000     0.065900440000     0.090058   
C174     C      0.910865346667     0.966880050000     0.162882390000    -3.64307    
C175     C      0.915435253333     0.908086950000     0.053161885000     0.09725    
C176     C      0.953819800000     0.948162900000     0.157940075000     6.47372    
C177     C      0.730729486667     0.912641375000     0.116737230000     3.70836    
C178     C      0.771648566667     0.905645450000     0.074319265000     0.455252   
C179     C      0.816004256667     0.917510000000     0.088351845000    -0.435349   
C180     C      0.926972866667     0.971575675000     0.036811380000     0.112139   
C181     C      0.952039380000     0.978646350000     0.010437410000    -0.036946   
C182     C      0.999110520000     0.896548780000     0.135837330000     41.0598    
C183     C      0.699341576667     0.918407900000     0.118621715000     12.4903    
C184     C      0.688817120000     0.930128870000     0.131818490000    -12.0791    
C185     C      0.688569323333     0.971246550000     0.128136070000     2.98678    
C186     C      0.981353066667     0.989406350000     0.143698575000    -0.508848   
C187     C      0.856398333333     0.937304650000     0.074013560000     0.010229   
C188     C      0.837205400000     0.972681135000     0.062187965000    -0.087595   
C189     C      0.819121833333     0.914647000000     0.116809600000     0.544759   
C190     C      0.875496586667     0.991009770000     0.045678610000    -0.024558   
C191     C      0.727705170000     0.907950280000     0.088363100000    -1.0514     
C192     C      0.890718280000     0.698499950000     0.072077425000    -8.85481    
C193     C      0.721773956667     0.579425695000     0.166157185000    -0.162072   
C194     C      0.861738383333     0.683018750000     0.091178560000     3.86331    
C195     C      0.756607266667     0.595530080000     0.150597400000     0.123389   
C196     C      0.813588033333     0.672798975000     0.083814720000    -3.19129    
C197     C      0.746072466667     0.600919635000     0.122925185000    -0.026961   
C198     C      0.794834940000     0.678779365000     0.057144360000     2.96172    
C199     C      0.700193160000     0.589861600000     0.111125290000     0.155715   
C200     C      0.825390566667     0.694870785000     0.038525120000     24.2381    
C201     C      0.999334513333     0.573841655000     0.127746910000    -0.140264   
C202     C      0.783183300000     0.655574560000     0.104259430000     0.952606   
C203     C      0.783284766667     0.618738225000     0.106558050000    -0.231616   
C204     C      0.823912700000     0.559698375000     0.099720950000    -0.100974   
C205     C      0.760988723333     0.716356800000     0.122242510000     0.112019   
C206     C      0.975615200000     0.528285540000     0.204491735000     0.065116   
C207     C      0.902121566667     0.594383390000     0.156267240000     0.411585   
C208     C      0.949819983333     0.551484950000     0.187565625000    -0.00061    
C209     C      0.927923533333     0.571177930000     0.173197790000    -0.150734   
C210     C      0.764905393333     0.671025290000     0.182072775000     0.257916   
C211     C      0.782021400000     0.763909070000     0.350007685000     1.72546    
C212     C      0.772288013333     0.752249630000     0.322413920000    -1.49174    
C213     C      0.774351020000     0.682301910000     0.209737570000    -0.074654   
C214     C      0.756933966667     0.729006710000     0.271427750000    -0.291506   
C215     C      0.789043516667     0.705086450000     0.260828200000     0.093985   
C216     C      0.781856426667     0.692087665000     0.233043360000     0.007816   
C217     C      0.764446210000     0.742187260000     0.299177885000     0.667758   
C218     C      0.831885150000     0.690910175000     0.276880325000    -0.0343     
C219     C      0.878985400000     0.693684430000     0.267009950000    -0.047292   
C220     C      0.919380586667     0.680588035000     0.282037885000    -0.033639   
C221     C      0.913152813333     0.664626730000     0.306991900000    -0.036156   
C222     C      0.866417586667     0.661189950000     0.316757680000    -0.024432   
C223     C      0.825883633333     0.673912915000     0.301693800000    -0.036201   
C224     C      0.713729953333     0.742788750000     0.255399450000     0.046484   
C225     C      0.666803140000     0.740015075000     0.265506685000     0.110918   
C226     C      0.959363420000     0.752174850000     0.250301000000    -0.156446   
C227     C      0.964918950000     0.766948400000     0.224872250000    -0.11525    
C228     C      0.678075526667     0.770319285000     0.214823000000    -0.014302   
C229     C      0.719064076667     0.758859900000     0.230147660000    -0.043317   
C230     C      0.683587233333     0.700535820000     0.026511140000     0.000652   
C231     C      0.924656966667     0.711342275000     0.019840255000    -12.2852    
C232     C      0.966996886667     0.706363950000     0.022916585000     5.08432    
C233     C      0.874732910000     0.717167150000     0.016243525000     26.0096    
C234     C      0.770985006667     0.659349485000     0.482658200000     46.8753    
C235     C      0.809808016667     0.582328675000     0.436666100000    -3.31246    
C236     C      0.746261846667     0.511832385000     0.406844600000     16.8364    
C237     C      0.811769133333     0.994557380000     0.438798850000     4.44516    
C238     C      0.783485143333     0.916156200000     0.389505180000    -0.898978   
C239     C      0.741100540000     0.562332115000     0.461942525000    -2.69133    
C240     C      0.808078666667     0.616593500000     0.449411550000     7.30308    
C241     C      0.748024340000     0.977961800000     0.393493850000    -32.6068    
C242     C      0.813502720000     0.960283130000     0.426068300000    -4.89494    
C243     C      0.739336966667     0.596189945000     0.475312770000     5.73071    
C244     C      0.772821773333     0.623623730000     0.468967100000    -15.3419    
C245     C      0.781648900000     0.951888325000     0.403186530000     11.7579    
C246     C      0.776313666667     0.555518475000     0.442860125000     2.9808     
C247     C      0.778148910000     0.520010875000     0.429259030000    -3.99365    
C248     C      0.842108010000     0.645098250000     0.441294850000    -3.89801    
C249     C      0.825376153333     0.672499580000     0.424156800000     2.93538    
C250     C      0.857051366667     0.700287475000     0.417431830000    -2.69483    
C251     C      0.905302633333     0.701113565000     0.428036185000     3.11364    
C252     C      0.922128833333     0.673910470000     0.445132165000    -4.75463    
C253     C      0.890744633333     0.645822465000     0.451639475000     4.82446    
C254     C      0.715839876667     0.970788900000     0.368850530000    -19.4162    
C255     C      0.734962443333     0.971592100000     0.342916100000     8.77134    
C256     C      0.704998776667     0.963287175000     0.319692900000    -3.59226    
C257     C      0.989399116667     0.953707575000     0.322261500000     2.71276    
C258     C      0.970187933333     0.952828400000     0.348042725000    -0.207852   
C259     C      0.999875533333     0.961557030000     0.371301450000    -2.43291    
C260     C      0.847460200000     0.933150680000     0.437577220000     1.89114    
C261     C      0.829726010000     0.905093075000     0.453034450000    -0.672218   
C262     C      0.861499166667     0.878581525000     0.462925800000     1.21667    
C263     C      0.910905300000     0.879683800000     0.457154275000    -0.044241   
C264     C      0.928741933333     0.907548300000     0.441747220000    -0.234749   
C265     C      0.897206966667     0.934373400000     0.432102700000    -0.45902    
C266     C      0.703559030000     0.601975750000     0.496581675000    -1.80767    
C267     C      0.718900860000     0.602021740000     0.024226310000    -1.57701    
C268     C      0.685446823333     0.609008775000     0.044292865000     0.635204   
C269     C      0.970093400000     0.616427550000     0.036868690000    -0.039788   
C270     C      0.954638480000     0.616453355000     0.009367345000    -0.747818   
C271     C      0.987839000000     0.609030835000     0.489240700000     0.662751   
C272     C      0.728468476667     0.912492900000     0.287190400000     3.61654    
C273     C      0.790964400000     0.988451600000     0.234553175000     0.265478   
C274     C      0.755966466667     0.943854950000     0.294656575000     0.994255   
C275     C      0.779122093333     0.981986100000     0.207167240000     0.076918   
C276     C      0.767815833333     0.950300650000     0.322049050000     0.922903   
C277     C      0.792869756667     0.505722700000     0.187002400000    -1.77938    
C278     C      0.754096600000     0.926543450000     0.342176615000     5.76569    
C279     C      0.682168486667     0.857771400000     0.298020850000     0.841227   
C280     C      0.702912950000     0.826455770000     0.286446750000     0.49193    
C281     C      0.673197690000     0.799867450000     0.273072570000     0.015731   
C282     C      0.956076100000     0.804722050000     0.270455630000    -0.508435   
C283     C      0.935379086667     0.836495520000     0.280734050000     1.27596    
C284     C      0.964975533333     0.863137100000     0.294114830000    -1.28225    
C285     C      0.864867646667     0.574473320000     0.231160450000    -0.02001    
C286     C      0.915383320000     0.569068670000     0.235066115000    -0.049896   
C287     C      0.945016733333     0.595690070000     0.248448415000    -0.01663    
C288     C      0.924360700000     0.627477585000     0.258727700000    -0.035341   
C289     C      0.873916400000     0.632371070000     0.256111115000    -0.024596   
C290     C      0.844169856667     0.605802415000     0.242736850000    -0.045775   
C291     C      0.710850496667     0.906196685000     0.258400680000    -1.18761    
C292     C      0.669789560000     0.924684880000     0.248083370000    -0.417808   
C293     C      0.987030300000     0.919251470000     0.220842100000     0.592281   
C294     C      0.678532476667     0.895418850000     0.203796750000     1.50147    
C295     C      0.719509110000     0.876988300000     0.213964015000    -0.85254    
C296     C      0.735743436667     0.882371550000     0.241184235000     0.813077   
C297     C      0.836064220000     0.526117145000     0.270804300000     0.587513   
C298     C      0.811134346667     0.549939035000     0.288004850000    -0.273838   
C299     C      0.827254920000     0.555270135000     0.315248070000     0.204943   
C300     C      0.868152000000     0.536782800000     0.325456950000     0.022681   
C301     C      0.893031756667     0.512963355000     0.308428050000     0.689646   
C302     C      0.877060413333     0.507584035000     0.281162920000    -0.869979   
C303     C      0.832805873333     0.543757615000     0.221502170000     0.020992   
C304     C      0.714190606667     0.888507600000     0.307681800000    -14.3958    
C305     C      0.818488526667     0.519800365000     0.242007630000    -0.271328   
S306     S      0.973377866667     0.716545835000     0.470138450000     3.10729    
S307     S      0.918210566667     0.862835500000     0.404177800000    -4.84362    
S308     S      0.681499440000     0.802887230000     0.478465950000     8.84305    
S309     S      0.844686500000     0.862757100000     0.455040125000     0.050881   
S310     S      0.778113453333     0.988457350000     0.153206020000     2.17637    
S311     S      0.769083390000     0.943774225000     0.375910135000    -1.00093    
N312     N      0.827841283333     0.870036700000     0.374160650000    -26.0573    
N313     N      0.728854873333     0.705984665000     0.498158425000     1.9714     
N314     N      0.760919800000     0.804957120000     0.434414100000     0.24776    
N315     N      0.787738093333     0.793540050000     0.453526250000    -0.823809   
N316     N      0.872589490000     0.704084000000     0.046348530000     16.8532    
N317     N      0.677677473333     0.568768130000     0.154650400000     0.08211    
N318     N      0.952929120000     0.561876170000     0.116311370000     0.007361   
N319     N      0.806158690000     0.703038650000     0.011913040000    -177.444    
N320     N      0.816140513333     0.596560770000     0.091428375000    -0.078326   
N321     N      0.750911100000     0.677800850000     0.119761735000    -0.379861   
N322     N      0.745852853333     0.667855010000     0.048704880000     0.77124    
N323     N      0.688424423333     0.594546395000     0.082665650000    -0.007862   
N324     N      0.820029606667     0.537083985000     0.193977015000    -0.017603   
N325     N      0.726978476667     0.895163925000     0.335206900000     1.27694    
N326     N      0.778931210000     0.960678550000     0.252987450000     0.258693   
N327     N      0.767996826667     0.971636150000     0.276228000000     0.134367   
O328     O      0.936980566667     0.712549580000     0.491701425000    -3.81482    
O329     O      0.954195300000     0.743713930000     0.450301470000    -1.1237     
O330     O      0.979214033333     0.677077530000     0.452537715000    -7.70272    
O331     O      0.933882833333     0.896881730000     0.419858050000     1.38787    
O332     O      0.932875666667     0.831009300000     0.420894325000     1.8909     
O333     O      0.949885566667     0.860005470000     0.376053200000     7.93372    
O334     O      0.997498113333     0.815432875000     0.451002775000    -6.16877    
O335     O      0.971050633333     0.795745430000     0.494792800000    -2.03775    
O336     O      0.714929386667     0.836017670000     0.494595530000    -1.03231    
O337     O      0.881169033333     0.837115170000     0.467340750000    -0.617669   
O338     O      0.866477666667     0.900201950000     0.455551030000    -0.937453   
O339     O      0.795518606667     0.864508330000     0.474040950000    -0.285341   
O340     O      0.870262466667     0.836807280000     0.380348325000    -37.6797    
O341     O      0.683435676667     0.902809085000     0.320345225000    -2.44612    
O342     O      0.713367940000     0.859259550000     0.349079430000    -1.32204    
O343     O      0.840330223333     0.880356820000     0.351614100000    -346.065    
O344     O      0.811489573333     0.891285030000     0.033767720000    -0.375151   
O345     O      0.738959973333     0.879722265000     0.166769775000     1.38296    
O346     O      0.730739910000     0.887457700000     0.031912875000    -0.238782   
O347     O      0.819709666667     0.883549570000     0.168624600000    -0.269943   
O348     O      0.949529500000     0.531168905000     0.102592355000    -0.198325   
O349     O      0.917170683333     0.584770560000     0.114450950000    -0.089483   
O350     O      0.767645120000     0.723226025000     0.009082470000     19.361     
O351     O      0.823643233333     0.687217310000     0.490549900000     65.6328    
O352     O      0.737289673333     0.649924530000     0.025724990000     3.71113    
O353     O      0.709376716667     0.677029950000     0.063349030000    -0.439875   
O354     O      0.980085513333     0.608240330000     0.074713090000    -0.209897   
O355     O      0.718738880000     0.584191075000     0.064476130000    -0.193066   
O356     O      0.951722720000     0.505887960000     0.218022020000    -0.377796   
O357     O      0.926014033333     0.616780975000     0.142736940000    -0.210577   
O358     O      0.855567700000     0.592366750000     0.154927760000    -0.504567   
O359     O      0.688835700000     0.530302180000     0.205831230000    -0.493905   
O360     O      0.797971376667     0.652653010000     0.170052590000    -0.181258   
O361     O      0.749035243333     0.782401500000     0.362014600000    -10.2517    
O362     O      0.723668733333     0.679195540000     0.169942200000    -0.227444   
O363     O      0.823337883333     0.755859000000     0.362125000000    -0.4944     
O364     O      0.712235133333     0.718187870000     0.011289665000    -6.36919    
O365     O      0.697976786667     0.677889260000     0.044825030000    -0.831551   
O366     O      0.860351443333     0.739810650000     0.497917350000     60.3733    
O367     O      0.846087900000     0.699497300000     0.031464985000    -62.916     
O368     O      0.811261643333     0.675510375000     0.490561300000    -112.12     
O369     O      0.743208290000     0.899993200000     0.381605350000     1.55149    
O370     O      0.825337390000     0.901663800000     0.385666250000     20.6793    
O371     O      0.729132546667     0.673839750000     0.486500400000    -13.1326    
O372     O      0.735885600000     0.962306400000     0.153624800000    -0.373177   
O373     O      0.764236013333     0.516861615000     0.133326950000    -0.448934   
O374     O      0.826563656667     0.965396350000     0.142328665000    -4.2129     
O375     O      0.725967720000     0.964367900000     0.385904430000     30.4748    
O376     O      0.783407433333     0.915396870000     0.395722030000    -5.42361    
O377     O      0.816387453333     0.972977150000     0.375242850000     4.15575    
F378     F      0.843373756667     0.575249970000     0.417773950000     0.199233   
F379     F      0.714252533333     0.537170930000     0.397690500000    -3.27043    
F380     F      0.842040816667     0.502934550000     0.460861750000    -1.96342    
F381     F      0.709268050000     0.535696550000     0.467916130000     0.164949   
Zn0      Zn     0.800988446667     0.585275920000     0.663212240000     1.61648    
Zn1      Zn     0.739776890000     0.536131535000     0.696521450000     1.23312    
Cu2      Cu     0.827986450000     0.709583100000     0.523929905000     86.6219    
Cu3      Cu     0.727299273333     0.707324625000     0.519156590000     2.62446    
Cu4      Cu     0.825674980000     0.872567350000     0.853000375000     268.169    
Cu5      Cu     0.726169556667     0.867586730000     0.847184800000    -2.23077    
H6       H      0.946588433333     0.672182290000     0.943581750000    -0.870692   
H7       H      0.984571120000     0.862625450000     0.882477015000    -3.65138    
H8       H      0.724423363333     0.826338680000     0.512607335000    -0.413114   
H9       H      0.808588026667     0.870614170000     0.992767780000    -0.046142   
H10      H      0.980050633333     0.755992550000     0.890318650000     0.053457   
H11      H      0.979526620000     0.767582475000     0.854795550000     0.350159   
H12      H      0.674017530000     0.726036580000     0.865729330000     0.219907   
H13      H      0.737610390000     0.772213100000     0.857917800000     7.4584     
H14      H      0.737932126667     0.760380150000     0.892995300000    -0.124264   
H15      H      0.688739130000     0.816258670000     0.903611125000     0.472245   
H16      H      0.684842786667     0.827201275000     0.869961750000     0.393419   
H17      H      0.931795576667     0.758309000000     0.943111300000     0.949423   
H18      H      0.934936500000     0.710745035000     0.950931450000     0.445026   
H19      H      0.920973620000     0.723977060000     0.916497530000     1.47592    
H20      H      0.845883100000     0.703608530000     0.938139470000    -0.761785   
H21      H      0.843059733333     0.750226450000     0.929460615000    -0.644198   
H22      H      0.864686033333     0.769888950000     0.977730650000    -3.97614    
H23      H      0.876791566667     0.725677090000     0.986648830000    -40.0403    
H24      H      0.986424683333     0.866821080000     0.820798665000    -6.49212    
H25      H      0.695680896667     0.893293830000     0.802593600000     9.38741    
H26      H      0.678435493333     0.848118275000     0.790283650000    -1.12629    
H27      H      0.760007740000     0.844989270000     0.812886250000     0.128867   
H28      H      0.717735946667     0.822277050000     0.831415650000     0.120218   
H29      H      0.708974263333     0.881739170000     0.861716450000    -2.25354    
H30      H      0.753681666667     0.901826920000     0.844901850000    -3.06993    
H31      H      0.899660766667     0.642231050000     0.515996815000     0.959394   
H32      H      0.845811933333     0.615438230000     0.521386445000    -0.595424   
H33      H      0.879693786667     0.607300365000     0.991301500000    -1.43481    
H34      H      0.805473900000     0.642055110000     0.978844435000    -8.29063    
H35      H      0.859159100000     0.668154120000     0.975303770000    -17.8808    
H36      H      0.845713276667     0.701255470000     0.520360350000    -59.7131    
H37      H      0.800621633333     0.671471925000     0.526871680000    -48.4511    
H38      H      0.877622046667     0.908463420000     0.545761105000    -0.059299   
H39      H      0.912031666667     0.990957350000     0.676082450000     1.03532    
H40      H      0.991016033333     0.985644130000     0.514733140000     0.037932   
H41      H      0.949906900000     0.954649100000     0.996417730000     0.053457   
H42      H      0.933695653333     0.501211820000     0.999895800000     0.045672   
H43      H      0.886957900000     0.969257830000     0.532276570000     0.029638   
H44      H      0.933248666667     0.995042500000     0.551305275000     0.011088   
H45      H      0.988060833333     0.958323550000     0.667120665000    -2.16969    
H46      H      0.680796306667     0.923964000000     0.598631730000    -3.11845    
H47      H      0.710141776667     0.944453450000     0.629246710000     2.06497    
H48      H      0.732902766667     0.902685285000     0.615079125000    -5.54135    
H49      H      0.685150386667     0.890711070000     0.655508350000    -23.605     
H50      H      0.990916410000     0.870095500000     0.625057830000    -2.29134    
H51      H      0.945171333333     0.978139700000     0.636465965000     0.215718   
H52      H      0.987053613333     0.985157500000     0.665855050000     0.482424   
H53      H      0.981740400000     0.518990695000     0.640350625000     0.026621   
H54      H      0.724275006667     0.983011800000     0.635812200000    -0.995266   
H55      H      0.683325940000     0.977452950000     0.606331200000    -0.802203   
H56      H      0.986484350000     0.917947680000     0.624698200000    -6.65864    
H57      H      0.691764250000     0.926556250000     0.653996950000    -1.10608    
H58      H      0.886156400000     0.972797575000     0.528576605000     0.009015   
H59      H      0.860270100000     0.516256390000     0.537171595000    -0.037688   
H60      H      0.908447433333     0.998089375000     0.558858925000     0.096223   
H61      H      0.803832860000     0.967425250000     0.549076650000     0.063443   
H62      H      0.827224940000     0.991493950000     0.579118340000     0.083896   
H63      H      0.887662253333     0.945377500000     0.587980420000     0.165295   
H64      H      0.873381416667     0.919779420000     0.558514140000     0.051871   
H65      H      0.685266480000     0.960304900000     0.558497360000    -0.092381   
H66      H      0.906616686667     0.880764500000     0.615273880000    -1.85027    
H67      H      0.994325966667     0.853260575000     0.587330930000     0.301968   
H68      H      0.833853283333     0.970631720000     0.653456760000     2.13578    
H69      H      0.909594033333     0.854118800000     0.567928440000    -0.332121   
H70      H      0.927901033333     0.706429350000     0.577893225000     1.84163    
H71      H      0.729980920000     0.575360360000     0.687547625000    -0.165138   
H72      H      0.791528033333     0.603915550000     0.660070000000    -1.01966    
H73      H      0.876833320000     0.678786800000     0.611565850000    -1.00775    
H74      H      0.847453300000     0.608949200000     0.585466815000     0.101779   
H75      H      0.849363090000     0.545942635000     0.585915780000     0.03156    
H76      H      0.789005090000     0.544184280000     0.598387650000     0.046008   
H77      H      0.840162913333     0.559661470000     0.620848545000     0.057728   
H78      H      0.739040553333     0.667242840000     0.637414115000     0.165741   
H79      H      0.732755700000     0.729821325000     0.634381560000    -0.091354   
H80      H      0.759770780000     0.728485270000     0.601879560000    -0.568014   
H81      H      0.797337283333     0.721361580000     0.632716375000    -0.14841    
H82      H      0.884491333333     0.706345600000     0.747845365000     0.040387   
H83      H      0.955578433333     0.682966550000     0.774397880000     0.010106   
H84      H      0.944487833333     0.654755430000     0.818681600000     0.041477   
H85      H      0.861558666667     0.648582900000     0.835976550000     0.055155   
H86      H      0.789849906667     0.670513230000     0.809381200000     0.038396   
H87      H      0.995049433333     0.728083120000     0.784987720000    -0.080389   
H88      H      0.923392553333     0.750117900000     0.758180320000     0.054372   
H89      H      0.933236300000     0.775947750000     0.713025435000     0.026157   
H90      H      0.682361303333     0.781808375000     0.695141820000    -0.01461    
H91      H      0.754894400000     0.762305320000     0.722222910000     0.067816   
H92      H      0.773023966667     0.978402585000     0.840745150000    -2.82176    
H93      H      0.719767630000     0.964035950000     0.799720300000     0.694058   
H94      H      0.966394343333     0.946941585000     0.804282150000     0.231018   
H95      H      0.932357266667     0.945240300000     0.850009400000     5.0033     
H96      H      0.984791466667     0.960458600000     0.891197620000     0.998543   
H97      H      0.791359693333     0.903670600000     0.957233500000     0.21835    
H98      H      0.847785710000     0.857042150000     0.974907370000    -0.403292   
H99      H      0.935344000000     0.858939100000     0.964600350000     0.15689    
H100     H      0.966953233333     0.908274050000     0.937187670000     0.004654   
H101     H      0.911266700000     0.955652120000     0.919967920000     0.835932   
H102     H      0.756715446667     0.596887575000     0.530171575000    -0.341659   
H103     H      0.697316416667     0.608916870000     0.565590200000    -0.054085   
H104     H      0.944369753333     0.622183450000     0.552425265000     0.100191   
H105     H      0.916981366667     0.622367350000     0.503647325000     1.00216    
H106     H      0.975629200000     0.609449595000     0.967987800000     0.165423   
H107     H      0.787845880000     0.672419400000     0.916198450000    -0.876338   
H108     H      0.844126200000     0.721316100000     0.904149150000     0.816528   
H109     H      0.929622790000     0.722836360000     0.923022180000    -1.65973    
H110     H      0.959431066667     0.674675880000     0.953430600000     8.13013    
H111     H      0.903979380000     0.625065200000     0.965104750000    -1.64187    
H112     H      0.787085860000     0.975306350000     0.827726335000     2.74054    
H113     H      0.742122713333     0.822835685000     0.787660600000     0.223715   
H114     H      0.689350626667     0.775695235000     0.764444620000     0.039062   
H115     H      0.933141566667     0.784185530000     0.760000825000     0.191969   
H116     H      0.896475400000     0.840749700000     0.777934370000     1.19097    
H117     H      0.948698043333     0.888262550000     0.801007030000     2.70163    
H118     H      0.931632956667     0.543930410000     0.728173650000     0.075741   
H119     H      0.983916300000     0.591401460000     0.751248800000     0.012171   
H120     H      0.947326400000     0.647994460000     0.769182600000     0.029859   
H121     H      0.857794000000     0.656556070000     0.764735050000     0.05553    
H122     H      0.804963310000     0.609451530000     0.741522700000     0.025257   
H123     H      0.983736233333     0.943260550000     0.761128800000     0.096675   
H124     H      0.955368566667     0.933556850000     0.712932080000    -0.084276   
H125     H      0.999424433333     0.891300800000     0.682699300000    -2.33331    
H126     H      0.738786330000     0.858624370000     0.700729150000     0.072728   
H127     H      0.767745853333     0.868195115000     0.748824640000     0.440579   
H128     H      0.779175690000     0.564143775000     0.780332265000     0.097472   
H129     H      0.807936466667     0.573620320000     0.828472200000     0.009666   
H130     H      0.880488000000     0.540847780000     0.846574600000     0.350469   
H131     H      0.924628556667     0.998613330000     0.816369475000     0.916578   
H132     H      0.896469133333     0.988999900000     0.768133650000     0.974884   
H133     H      0.815164346667     0.953707850000     0.624718020000     1.25545    
H134     H      0.818347433333     0.985241770000     0.893485700000    -0.171261   
H135     H      0.759808926667     0.956981300000     0.701526060000    -0.084631   
C136     C      0.852899610000     0.861879530000     0.898713975000     8.98926    
C137     C      0.698466076667     0.730152200000     0.984650900000     1.11619    
C138     C      0.827380033333     0.848166650000     0.920937120000    -0.259032   
C139     C      0.717220066667     0.763060870000     0.975202450000    -3.57486    
C140     C      0.783246340000     0.828920450000     0.915575625000    -1.6848     
C141     C      0.766931583333     0.765306400000     0.969268250000     3.96116    
C142     C      0.759065340000     0.833747120000     0.890096650000     8.8973     
C143     C      0.798210800000     0.738118900000     0.979308250000    -10.9666    
C144     C      0.779032180000     0.858180000000     0.871116370000    -24.3117    
C145     C      0.779197493333     0.709969685000     0.995610650000     3.70259    
C146     C      0.709722996667     0.814411300000     0.884987150000    -2.7165     
C147     C      0.716750646667     0.774366700000     0.876692350000     1.51813    
C148     C      0.667760403333     0.754879050000     0.871577600000    -1.15272    
C149     C      0.852303433333     0.741548850000     0.973290680000    -5.51934    
C150     C      0.861280133333     0.730980115000     0.943413700000     4.26093    
C151     C      0.915700800000     0.731036560000     0.938251450000    -1.45904    
C152     C      0.742471446667     0.874744175000     0.850899750000     6.21042    
C153     C      0.728658563333     0.849708950000     0.825769215000    -1.01224    
C154     C      0.686380930000     0.865565420000     0.808816950000     2.07499    
C155     C      0.815704300000     0.685086265000     0.509901045000     201.4      
C156     C      0.836044866667     0.656072260000     0.990410950000     44.1929    
C157     C      0.867156666667     0.628576280000     0.505803110000    -9.74687    
C158     C      0.875810623333     0.861146180000     0.862190450000     125.901    
C159     C      0.677932420000     0.878622920000     0.838633550000     7.52782    
C160     C      0.923373323333     0.867330580000     0.853864200000    -44.7745    
C161     C      0.963732366667     0.872419850000     0.846995385000     25.3649    
C162     C      0.771115590000     0.894297630000     0.545405945000    -0.019799   
C163     C      0.778385420000     0.891045350000     0.656989215000     0.038071   
C164     C      0.946241280000     0.938030950000     0.549978735000    -0.555822   
C165     C      0.952672183333     0.916698950000     0.641054465000    -12.7403    
C166     C      0.994781713333     0.937074550000     0.560348390000     1.54801    
C167     C      0.776248133333     0.906221650000     0.630036235000     0.24112    
C168     C      0.907920266667     0.904565125000     0.628804160000     6.0783     
C169     C      0.678734400000     0.906869150000     0.574261195000     0.496878   
C170     C      0.865051010000     0.924319200000     0.632733600000    -2.74895    
C171     C      0.981334466667     0.876760700000     0.576648825000    -0.307439   
C172     C      0.866636216667     0.955163450000     0.650224270000     2.77558    
C173     C      0.933304250000     0.877307000000     0.565900440000     0.090058   
C174     C      0.910865346667     0.966880050000     0.662882390000    -3.64307    
C175     C      0.915435253333     0.908086950000     0.553161885000     0.09725    
C176     C      0.953819800000     0.948162900000     0.657940075000     6.47372    
C177     C      0.730729486667     0.912641375000     0.616737230000     3.70836    
C178     C      0.771648566667     0.905645450000     0.574319265000     0.455252   
C179     C      0.816004256667     0.917510000000     0.588351845000    -0.435349   
C180     C      0.926972866667     0.971575675000     0.536811380000     0.112139   
C181     C      0.952039380000     0.978646350000     0.510437410000    -0.036946   
C182     C      0.999110520000     0.896548780000     0.635837330000     41.0598    
C183     C      0.699341576667     0.918407900000     0.618621715000     12.4903    
C184     C      0.688817120000     0.930128870000     0.631818490000    -12.0791    
C185     C      0.688569323333     0.971246550000     0.628136070000     2.98678    
C186     C      0.981353066667     0.989406350000     0.643698575000    -0.508848   
C187     C      0.856398333333     0.937304650000     0.574013560000     0.010229   
C188     C      0.837205400000     0.972681135000     0.562187965000    -0.087595   
C189     C      0.819121833333     0.914647000000     0.616809600000     0.544759   
C190     C      0.875496586667     0.991009770000     0.545678610000    -0.024558   
C191     C      0.727705170000     0.907950280000     0.588363100000    -1.0514     
C192     C      0.890718280000     0.698499950000     0.572077425000    -8.85481    
C193     C      0.721773956667     0.579425695000     0.666157185000    -0.162072   
C194     C      0.861738383333     0.683018750000     0.591178560000     3.86331    
C195     C      0.756607266667     0.595530080000     0.650597400000     0.123389   
C196     C      0.813588033333     0.672798975000     0.583814720000    -3.19129    
C197     C      0.746072466667     0.600919635000     0.622925185000    -0.026961   
C198     C      0.794834940000     0.678779365000     0.557144360000     2.96172    
C199     C      0.700193160000     0.589861600000     0.611125290000     0.155715   
C200     C      0.825390566667     0.694870785000     0.538525120000     24.2381    
C201     C      0.999334513333     0.573841655000     0.627746910000    -0.140264   
C202     C      0.783183300000     0.655574560000     0.604259430000     0.952606   
C203     C      0.783284766667     0.618738225000     0.606558050000    -0.231616   
C204     C      0.823912700000     0.559698375000     0.599720950000    -0.100974   
C205     C      0.760988723333     0.716356800000     0.622242510000     0.112019   
C206     C      0.975615200000     0.528285540000     0.704491735000     0.065116   
C207     C      0.902121566667     0.594383390000     0.656267240000     0.411585   
C208     C      0.949819983333     0.551484950000     0.687565625000    -0.00061    
C209     C      0.927923533333     0.571177930000     0.673197790000    -0.150734   
C210     C      0.764905393333     0.671025290000     0.682072775000     0.257916   
C211     C      0.782021400000     0.763909070000     0.850007685000     1.72546    
C212     C      0.772288013333     0.752249630000     0.822413920000    -1.49174    
C213     C      0.774351020000     0.682301910000     0.709737570000    -0.074654   
C214     C      0.756933966667     0.729006710000     0.771427750000    -0.291506   
C215     C      0.789043516667     0.705086450000     0.760828200000     0.093985   
C216     C      0.781856426667     0.692087665000     0.733043360000     0.007816   
C217     C      0.764446210000     0.742187260000     0.799177885000     0.667758   
C218     C      0.831885150000     0.690910175000     0.776880325000    -0.0343     
C219     C      0.878985400000     0.693684430000     0.767009950000    -0.047292   
C220     C      0.919380586667     0.680588035000     0.782037885000    -0.033639   
C221     C      0.913152813333     0.664626730000     0.806991900000    -0.036156   
C222     C      0.866417586667     0.661189950000     0.816757680000    -0.024432   
C223     C      0.825883633333     0.673912915000     0.801693800000    -0.036201   
C224     C      0.713729953333     0.742788750000     0.755399450000     0.046484   
C225     C      0.666803140000     0.740015075000     0.765506685000     0.110918   
C226     C      0.959363420000     0.752174850000     0.750301000000    -0.156446   
C227     C      0.964918950000     0.766948400000     0.724872250000    -0.11525    
C228     C      0.678075526667     0.770319285000     0.714823000000    -0.014302   
C229     C      0.719064076667     0.758859900000     0.730147660000    -0.043317   
C230     C      0.683587233333     0.700535820000     0.526511140000     0.000652   
C231     C      0.924656966667     0.711342275000     0.519840255000    -12.2852    
C232     C      0.966996886667     0.706363950000     0.522916585000     5.08432    
C233     C      0.874732910000     0.717167150000     0.516243525000     26.0096    
C234     C      0.770985006667     0.659349485000     0.982658200000     46.8753    
C235     C      0.809808016667     0.582328675000     0.936666100000    -3.31246    
C236     C      0.746261846667     0.511832385000     0.906844600000     16.8364    
C237     C      0.811769133333     0.994557380000     0.938798850000     4.44516    
C238     C      0.783485143333     0.916156200000     0.889505180000    -0.898978   
C239     C      0.741100540000     0.562332115000     0.961942525000    -2.69133    
C240     C      0.808078666667     0.616593500000     0.949411550000     7.30308    
C241     C      0.748024340000     0.977961800000     0.893493850000    -32.6068    
C242     C      0.813502720000     0.960283130000     0.926068300000    -4.89494    
C243     C      0.739336966667     0.596189945000     0.975312770000     5.73071    
C244     C      0.772821773333     0.623623730000     0.968967100000    -15.3419    
C245     C      0.781648900000     0.951888325000     0.903186530000     11.7579    
C246     C      0.776313666667     0.555518475000     0.942860125000     2.9808     
C247     C      0.778148910000     0.520010875000     0.929259030000    -3.99365    
C248     C      0.842108010000     0.645098250000     0.941294850000    -3.89801    
C249     C      0.825376153333     0.672499580000     0.924156800000     2.93538    
C250     C      0.857051366667     0.700287475000     0.917431830000    -2.69483    
C251     C      0.905302633333     0.701113565000     0.928036185000     3.11364    
C252     C      0.922128833333     0.673910470000     0.945132165000    -4.75463    
C253     C      0.890744633333     0.645822465000     0.951639475000     4.82446    
C254     C      0.715839876667     0.970788900000     0.868850530000    -19.4162    
C255     C      0.734962443333     0.971592100000     0.842916100000     8.77134    
C256     C      0.704998776667     0.963287175000     0.819692900000    -3.59226    
C257     C      0.989399116667     0.953707575000     0.822261500000     2.71276    
C258     C      0.970187933333     0.952828400000     0.848042725000    -0.207852   
C259     C      0.999875533333     0.961557030000     0.871301450000    -2.43291    
C260     C      0.847460200000     0.933150680000     0.937577220000     1.89114    
C261     C      0.829726010000     0.905093075000     0.953034450000    -0.672218   
C262     C      0.861499166667     0.878581525000     0.962925800000     1.21667    
C263     C      0.910905300000     0.879683800000     0.957154275000    -0.044241   
C264     C      0.928741933333     0.907548300000     0.941747220000    -0.234749   
C265     C      0.897206966667     0.934373400000     0.932102700000    -0.45902    
C266     C      0.703559030000     0.601975750000     0.996581675000    -1.80767    
C267     C      0.718900860000     0.602021740000     0.524226310000    -1.57701    
C268     C      0.685446823333     0.609008775000     0.544292865000     0.635204   
C269     C      0.970093400000     0.616427550000     0.536868690000    -0.039788   
C270     C      0.954638480000     0.616453355000     0.509367345000    -0.747818   
C271     C      0.987839000000     0.609030835000     0.989240700000     0.662751   
C272     C      0.728468476667     0.912492900000     0.787190400000     3.61654    
C273     C      0.790964400000     0.988451600000     0.734553175000     0.265478   
C274     C      0.755966466667     0.943854950000     0.794656575000     0.994255   
C275     C      0.779122093333     0.981986100000     0.707167240000     0.076918   
C276     C      0.767815833333     0.950300650000     0.822049050000     0.922903   
C277     C      0.792869756667     0.505722700000     0.687002400000    -1.77938    
C278     C      0.754096600000     0.926543450000     0.842176615000     5.76569    
C279     C      0.682168486667     0.857771400000     0.798020850000     0.841227   
C280     C      0.702912950000     0.826455770000     0.786446750000     0.49193    
C281     C      0.673197690000     0.799867450000     0.773072570000     0.015731   
C282     C      0.956076100000     0.804722050000     0.770455630000    -0.508435   
C283     C      0.935379086667     0.836495520000     0.780734050000     1.27596    
C284     C      0.964975533333     0.863137100000     0.794114830000    -1.28225    
C285     C      0.864867646667     0.574473320000     0.731160450000    -0.02001    
C286     C      0.915383320000     0.569068670000     0.735066115000    -0.049896   
C287     C      0.945016733333     0.595690070000     0.748448415000    -0.01663    
C288     C      0.924360700000     0.627477585000     0.758727700000    -0.035341   
C289     C      0.873916400000     0.632371070000     0.756111115000    -0.024596   
C290     C      0.844169856667     0.605802415000     0.742736850000    -0.045775   
C291     C      0.710850496667     0.906196685000     0.758400680000    -1.18761    
C292     C      0.669789560000     0.924684880000     0.748083370000    -0.417808   
C293     C      0.987030300000     0.919251470000     0.720842100000     0.592281   
C294     C      0.678532476667     0.895418850000     0.703796750000     1.50147    
C295     C      0.719509110000     0.876988300000     0.713964015000    -0.85254    
C296     C      0.735743436667     0.882371550000     0.741184235000     0.813077   
C297     C      0.836064220000     0.526117145000     0.770804300000     0.587513   
C298     C      0.811134346667     0.549939035000     0.788004850000    -0.273838   
C299     C      0.827254920000     0.555270135000     0.815248070000     0.204943   
C300     C      0.868152000000     0.536782800000     0.825456950000     0.022681   
C301     C      0.893031756667     0.512963355000     0.808428050000     0.689646   
C302     C      0.877060413333     0.507584035000     0.781162920000    -0.869979   
C303     C      0.832805873333     0.543757615000     0.721502170000     0.020992   
C304     C      0.714190606667     0.888507600000     0.807681800000    -14.3958    
C305     C      0.818488526667     0.519800365000     0.742007630000    -0.271328   
S306     S      0.973377866667     0.716545835000     0.970138450000     3.10729    
S307     S      0.918210566667     0.862835500000     0.904177800000    -4.84362    
S308     S      0.681499440000     0.802887230000     0.978465950000     8.84305    
S309     S      0.844686500000     0.862757100000     0.955040125000     0.050881   
S310     S      0.778113453333     0.988457350000     0.653206020000     2.17637    
S311     S      0.769083390000     0.943774225000     0.875910135000    -1.00093    
N312     N      0.827841283333     0.870036700000     0.874160650000    -26.0573    
N313     N      0.728854873333     0.705984665000     0.998158425000     1.9714     
N314     N      0.760919800000     0.804957120000     0.934414100000     0.24776    
N315     N      0.787738093333     0.793540050000     0.953526250000    -0.823809   
N316     N      0.872589490000     0.704084000000     0.546348530000     16.8532    
N317     N      0.677677473333     0.568768130000     0.654650400000     0.08211    
N318     N      0.952929120000     0.561876170000     0.616311370000     0.007361   
N319     N      0.806158690000     0.703038650000     0.511913040000    -177.444    
N320     N      0.816140513333     0.596560770000     0.591428375000    -0.078326   
N321     N      0.750911100000     0.677800850000     0.619761735000    -0.379861   
N322     N      0.745852853333     0.667855010000     0.548704880000     0.77124    
N323     N      0.688424423333     0.594546395000     0.582665650000    -0.007862   
N324     N      0.820029606667     0.537083985000     0.693977015000    -0.017603   
N325     N      0.726978476667     0.895163925000     0.835206900000     1.27694    
N326     N      0.778931210000     0.960678550000     0.752987450000     0.258693   
N327     N      0.767996826667     0.971636150000     0.776228000000     0.134367   
O328     O      0.936980566667     0.712549580000     0.991701425000    -3.81482    
O329     O      0.954195300000     0.743713930000     0.950301470000    -1.1237     
O330     O      0.979214033333     0.677077530000     0.952537715000    -7.70272    
O331     O      0.933882833333     0.896881730000     0.919858050000     1.38787    
O332     O      0.932875666667     0.831009300000     0.920894325000     1.8909     
O333     O      0.949885566667     0.860005470000     0.876053200000     7.93372    
O334     O      0.997498113333     0.815432875000     0.951002775000    -6.16877    
O335     O      0.971050633333     0.795745430000     0.994792800000    -2.03775    
O336     O      0.714929386667     0.836017670000     0.994595530000    -1.03231    
O337     O      0.881169033333     0.837115170000     0.967340750000    -0.617669   
O338     O      0.866477666667     0.900201950000     0.955551030000    -0.937453   
O339     O      0.795518606667     0.864508330000     0.974040950000    -0.285341   
O340     O      0.870262466667     0.836807280000     0.880348325000    -37.6797    
O341     O      0.683435676667     0.902809085000     0.820345225000    -2.44612    
O342     O      0.713367940000     0.859259550000     0.849079430000    -1.32204    
O343     O      0.840330223333     0.880356820000     0.851614100000    -346.065    
O344     O      0.811489573333     0.891285030000     0.533767720000    -0.375151   
O345     O      0.738959973333     0.879722265000     0.666769775000     1.38296    
O346     O      0.730739910000     0.887457700000     0.531912875000    -0.238782   
O347     O      0.819709666667     0.883549570000     0.668624600000    -0.269943   
O348     O      0.949529500000     0.531168905000     0.602592355000    -0.198325   
O349     O      0.917170683333     0.584770560000     0.614450950000    -0.089483   
O350     O      0.767645120000     0.723226025000     0.509082470000     19.361     
O351     O      0.823643233333     0.687217310000     0.990549900000     65.6328    
O352     O      0.737289673333     0.649924530000     0.525724990000     3.71113    
O353     O      0.709376716667     0.677029950000     0.563349030000    -0.439875   
O354     O      0.980085513333     0.608240330000     0.574713090000    -0.209897   
O355     O      0.718738880000     0.584191075000     0.564476130000    -0.193066   
O356     O      0.951722720000     0.505887960000     0.718022020000    -0.377796   
O357     O      0.926014033333     0.616780975000     0.642736940000    -0.210577   
O358     O      0.855567700000     0.592366750000     0.654927760000    -0.504567   
O359     O      0.688835700000     0.530302180000     0.705831230000    -0.493905   
O360     O      0.797971376667     0.652653010000     0.670052590000    -0.181258   
O361     O      0.749035243333     0.782401500000     0.862014600000    -10.2517    
O362     O      0.723668733333     0.679195540000     0.669942200000    -0.227444   
O363     O      0.823337883333     0.755859000000     0.862125000000    -0.4944     
O364     O      0.712235133333     0.718187870000     0.511289665000    -6.36919    
O365     O      0.697976786667     0.677889260000     0.544825030000    -0.831551   
O366     O      0.860351443333     0.739810650000     0.997917350000     60.3733    
O367     O      0.846087900000     0.699497300000     0.531464985000    -62.916     
O368     O      0.811261643333     0.675510375000     0.990561300000    -112.12     
O369     O      0.743208290000     0.899993200000     0.881605350000     1.55149    
O370     O      0.825337390000     0.901663800000     0.885666250000     20.6793    
O371     O      0.729132546667     0.673839750000     0.986500400000    -13.1326    
O372     O      0.735885600000     0.962306400000     0.653624800000    -0.373177   
O373     O      0.764236013333     0.516861615000     0.633326950000    -0.448934   
O374     O      0.826563656667     0.965396350000     0.642328665000    -4.2129     
O375     O      0.725967720000     0.964367900000     0.885904430000     30.4748    
O376     O      0.783407433333     0.915396870000     0.895722030000    -5.42361    
O377     O      0.816387453333     0.972977150000     0.875242850000     4.15575    
F378     F      0.843373756667     0.575249970000     0.917773950000     0.199233   
F379     F      0.714252533333     0.537170930000     0.897690500000    -3.27043    
F380     F      0.842040816667     0.502934550000     0.960861750000    -1.96342    
F381     F      0.709268050000     0.535696550000     0.967916130000     0.164949   


