data_sample_0_relaxed_charged

_audit_creation_method RASPA-1.0
_audit_creation_date 2026-2-5
_audit_author_name ''

_cell_length_a    16.7106
_cell_length_b    16.9542
_cell_length_c    21.9825
_cell_angle_alpha 91.0355
_cell_angle_beta  91.7797
_cell_angle_gamma 81.2617
_cell_volume      49216.9

_symmetry_cell_setting          triclinic
_symmetry_space_group_name_Hall 'P 1'
_symmetry_space_group_name_H-M  'P 1'
_symmetry_Int_Tables_number     1

_symmetry_equiv_pos_as_xyz 'x,y,z'

loop_
_atom_site_label
_atom_site_type_symbol
_atom_site_fract_x
_atom_site_fract_y
_atom_site_fract_z
_atom_site_charge
Cu0      Cu     0.203371300000     0.453339935000     0.142923085000     0.072492   
Cu0      Cu     0.203371300000     0.453339935000     0.642923085000     0.072492   
Cu0      Cu     0.203371300000     0.953339935000     0.142923085000     0.072492   
Cu0      Cu     0.203371300000     0.953339935000     0.642923085000     0.072492   
Cu0      Cu     0.703371300000     0.453339935000     0.142923085000     0.072492   
Cu0      Cu     0.703371300000     0.453339935000     0.642923085000     0.072492   
Cu0      Cu     0.703371300000     0.953339935000     0.142923085000     0.072492   
Cu0      Cu     0.703371300000     0.953339935000     0.642923085000     0.072492   
Cu1      Cu     0.142318025000     0.412366480000     0.130479320000     0.071449   
Cu1      Cu     0.142318025000     0.412366480000     0.630479320000     0.071449   
Cu1      Cu     0.142318025000     0.912366480000     0.130479320000     0.071449   
Cu1      Cu     0.142318025000     0.912366480000     0.630479320000     0.071449   
Cu1      Cu     0.642318025000     0.412366480000     0.130479320000     0.071449   
Cu1      Cu     0.642318025000     0.412366480000     0.630479320000     0.071449   
Cu1      Cu     0.642318025000     0.912366480000     0.130479320000     0.071449   
Cu1      Cu     0.642318025000     0.912366480000     0.630479320000     0.071449   
Cu2      Cu     0.405782850000     0.149800630000     0.129751100000     0.065332   
Cu2      Cu     0.405782850000     0.149800630000     0.629751100000     0.065332   
Cu2      Cu     0.405782850000     0.649800630000     0.129751100000     0.065332   
Cu2      Cu     0.405782850000     0.649800630000     0.629751100000     0.065332   
Cu2      Cu     0.905782850000     0.149800630000     0.129751100000     0.065332   
Cu2      Cu     0.905782850000     0.149800630000     0.629751100000     0.065332   
Cu2      Cu     0.905782850000     0.649800630000     0.129751100000     0.065332   
Cu2      Cu     0.905782850000     0.649800630000     0.629751100000     0.065332   
Cu3      Cu     0.433328270000     0.218109875000     0.143644365000     0.074866   
Cu3      Cu     0.433328270000     0.218109875000     0.643644365000     0.074866   
Cu3      Cu     0.433328270000     0.718109875000     0.143644365000     0.074866   
Cu3      Cu     0.433328270000     0.718109875000     0.643644365000     0.074866   
Cu3      Cu     0.933328270000     0.218109875000     0.143644365000     0.074866   
Cu3      Cu     0.933328270000     0.218109875000     0.643644365000     0.074866   
Cu3      Cu     0.933328270000     0.718109875000     0.143644365000     0.074866   
Cu3      Cu     0.933328270000     0.718109875000     0.643644365000     0.074866   
H4       H      0.233123170000     0.298999580000     0.160194650000     0.112118   
H4       H      0.233123170000     0.298999580000     0.660194650000     0.112118   
H4       H      0.233123170000     0.798999580000     0.160194650000     0.112118   
H4       H      0.233123170000     0.798999580000     0.660194650000     0.112118   
H4       H      0.733123170000     0.298999580000     0.160194650000     0.112118   
H4       H      0.733123170000     0.298999580000     0.660194650000     0.112118   
H4       H      0.733123170000     0.798999580000     0.160194650000     0.112118   
H4       H      0.733123170000     0.798999580000     0.660194650000     0.112118   
H5       H      0.323561350000     0.294081400000     0.083355770000     0.063149   
H5       H      0.323561350000     0.294081400000     0.583355770000     0.063149   
H5       H      0.323561350000     0.794081400000     0.083355770000     0.063149   
H5       H      0.323561350000     0.794081400000     0.583355770000     0.063149   
H5       H      0.823561350000     0.294081400000     0.083355770000     0.063149   
H5       H      0.823561350000     0.294081400000     0.583355770000     0.063149   
H5       H      0.823561350000     0.794081400000     0.083355770000     0.063149   
H5       H      0.823561350000     0.794081400000     0.583355770000     0.063149   
H6       H      0.298431950000     0.405985650000     0.211932480000     0.117223   
H6       H      0.298431950000     0.405985650000     0.711932480000     0.117223   
H6       H      0.298431950000     0.905985650000     0.211932480000     0.117223   
H6       H      0.298431950000     0.905985650000     0.711932480000     0.117223   
H6       H      0.798431950000     0.405985650000     0.211932480000     0.117223   
H6       H      0.798431950000     0.405985650000     0.711932480000     0.117223   
H6       H      0.798431950000     0.905985650000     0.211932480000     0.117223   
H6       H      0.798431950000     0.905985650000     0.711932480000     0.117223   
H7       H      0.256156200000     0.389564485000     0.193484950000     0.064518   
H7       H      0.256156200000     0.389564485000     0.693484950000     0.064518   
H7       H      0.256156200000     0.889564485000     0.193484950000     0.064518   
H7       H      0.256156200000     0.889564485000     0.693484950000     0.064518   
H7       H      0.756156200000     0.389564485000     0.193484950000     0.064518   
H7       H      0.756156200000     0.389564485000     0.693484950000     0.064518   
H7       H      0.756156200000     0.889564485000     0.193484950000     0.064518   
H7       H      0.756156200000     0.889564485000     0.693484950000     0.064518   
H8       H      0.282065750000     0.427997150000     0.176803335000     0.051638   
H8       H      0.282065750000     0.427997150000     0.676803335000     0.051638   
H8       H      0.282065750000     0.927997150000     0.176803335000     0.051638   
H8       H      0.282065750000     0.927997150000     0.676803335000     0.051638   
H8       H      0.782065750000     0.427997150000     0.176803335000     0.051638   
H8       H      0.782065750000     0.427997150000     0.676803335000     0.051638   
H8       H      0.782065750000     0.927997150000     0.176803335000     0.051638   
H8       H      0.782065750000     0.927997150000     0.676803335000     0.051638   
H9       H      0.241848990000     0.239431710000     0.184088050000     0.04192    
H9       H      0.241848990000     0.239431710000     0.684088050000     0.04192    
H9       H      0.241848990000     0.739431710000     0.184088050000     0.04192    
H9       H      0.241848990000     0.739431710000     0.684088050000     0.04192    
H9       H      0.741848990000     0.239431710000     0.184088050000     0.04192    
H9       H      0.741848990000     0.239431710000     0.684088050000     0.04192    
H9       H      0.741848990000     0.739431710000     0.184088050000     0.04192    
H9       H      0.741848990000     0.739431710000     0.684088050000     0.04192    
H10      H      0.280179750000     0.196453540000     0.177390740000     0.052177   
H10      H      0.280179750000     0.196453540000     0.677390740000     0.052177   
H10      H      0.280179750000     0.696453540000     0.177390740000     0.052177   
H10      H      0.280179750000     0.696453540000     0.677390740000     0.052177   
H10      H      0.780179750000     0.196453540000     0.177390740000     0.052177   
H10      H      0.780179750000     0.196453540000     0.677390740000     0.052177   
H10      H      0.780179750000     0.696453540000     0.177390740000     0.052177   
H10      H      0.780179750000     0.696453540000     0.677390740000     0.052177   
H11      H      0.234859870000     0.204442650000     0.154007630000     0.054718   
H11      H      0.234859870000     0.204442650000     0.654007630000     0.054718   
H11      H      0.234859870000     0.704442650000     0.154007630000     0.054718   
H11      H      0.234859870000     0.704442650000     0.654007630000     0.054718   
H11      H      0.734859870000     0.204442650000     0.154007630000     0.054718   
H11      H      0.734859870000     0.204442650000     0.654007630000     0.054718   
H11      H      0.734859870000     0.704442650000     0.154007630000     0.054718   
H11      H      0.734859870000     0.704442650000     0.654007630000     0.054718   
H12      H      0.356694550000     0.416092600000     0.114205495000     0.05198    
H12      H      0.356694550000     0.416092600000     0.614205495000     0.05198    
H12      H      0.356694550000     0.916092600000     0.114205495000     0.05198    
H12      H      0.356694550000     0.916092600000     0.614205495000     0.05198    
H12      H      0.856694550000     0.416092600000     0.114205495000     0.05198    
H12      H      0.856694550000     0.416092600000     0.614205495000     0.05198    
H12      H      0.856694550000     0.916092600000     0.114205495000     0.05198    
H12      H      0.856694550000     0.916092600000     0.614205495000     0.05198    
H13      H      0.342640500000     0.421184780000     0.153848050000     0.042543   
H13      H      0.342640500000     0.421184780000     0.653848050000     0.042543   
H13      H      0.342640500000     0.921184780000     0.153848050000     0.042543   
H13      H      0.342640500000     0.921184780000     0.653848050000     0.042543   
H13      H      0.842640500000     0.421184780000     0.153848050000     0.042543   
H13      H      0.842640500000     0.421184780000     0.653848050000     0.042543   
H13      H      0.842640500000     0.921184780000     0.153848050000     0.042543   
H13      H      0.842640500000     0.921184780000     0.653848050000     0.042543   
H14      H      0.313725400000     0.449805915000     0.125305175000     0.067256   
H14      H      0.313725400000     0.449805915000     0.625305175000     0.067256   
H14      H      0.313725400000     0.949805915000     0.125305175000     0.067256   
H14      H      0.313725400000     0.949805915000     0.625305175000     0.067256   
H14      H      0.813725400000     0.449805915000     0.125305175000     0.067256   
H14      H      0.813725400000     0.449805915000     0.625305175000     0.067256   
H14      H      0.813725400000     0.949805915000     0.125305175000     0.067256   
H14      H      0.813725400000     0.949805915000     0.625305175000     0.067256   
H15      H      0.392120420000     0.286179425000     0.088207625000     0.072286   
H15      H      0.392120420000     0.286179425000     0.588207625000     0.072286   
H15      H      0.392120420000     0.786179425000     0.088207625000     0.072286   
H15      H      0.392120420000     0.786179425000     0.588207625000     0.072286   
H15      H      0.892120420000     0.286179425000     0.088207625000     0.072286   
H15      H      0.892120420000     0.286179425000     0.588207625000     0.072286   
H15      H      0.892120420000     0.786179425000     0.088207625000     0.072286   
H15      H      0.892120420000     0.786179425000     0.588207625000     0.072286   
H16      H      0.421324600000     0.311641250000     0.116132675000     0.06818    
H16      H      0.421324600000     0.311641250000     0.616132675000     0.06818    
H16      H      0.421324600000     0.811641250000     0.116132675000     0.06818    
H16      H      0.421324600000     0.811641250000     0.616132675000     0.06818    
H16      H      0.921324600000     0.311641250000     0.116132675000     0.06818    
H16      H      0.921324600000     0.311641250000     0.616132675000     0.06818    
H16      H      0.921324600000     0.811641250000     0.116132675000     0.06818    
H16      H      0.921324600000     0.811641250000     0.616132675000     0.06818    
H17      H      0.407985570000     0.332170600000     0.079809180000     0.077081   
H17      H      0.407985570000     0.332170600000     0.579809180000     0.077081   
H17      H      0.407985570000     0.832170600000     0.079809180000     0.077081   
H17      H      0.407985570000     0.832170600000     0.579809180000     0.077081   
H17      H      0.907985570000     0.332170600000     0.079809180000     0.077081   
H17      H      0.907985570000     0.332170600000     0.579809180000     0.077081   
H17      H      0.907985570000     0.832170600000     0.079809180000     0.077081   
H17      H      0.907985570000     0.832170600000     0.579809180000     0.077081   
H18      H      0.384489400000     0.376411885000     0.182078150000     0.05913    
H18      H      0.384489400000     0.376411885000     0.682078150000     0.05913    
H18      H      0.384489400000     0.876411885000     0.182078150000     0.05913    
H18      H      0.384489400000     0.876411885000     0.682078150000     0.05913    
H18      H      0.884489400000     0.376411885000     0.182078150000     0.05913    
H18      H      0.884489400000     0.376411885000     0.682078150000     0.05913    
H18      H      0.884489400000     0.876411885000     0.182078150000     0.05913    
H18      H      0.884489400000     0.876411885000     0.682078150000     0.05913    
H19      H      0.398557215000     0.372616750000     0.142106620000     0.057775   
H19      H      0.398557215000     0.372616750000     0.642106620000     0.057775   
H19      H      0.398557215000     0.872616750000     0.142106620000     0.057775   
H19      H      0.398557215000     0.872616750000     0.642106620000     0.057775   
H19      H      0.898557215000     0.372616750000     0.142106620000     0.057775   
H19      H      0.898557215000     0.372616750000     0.642106620000     0.057775   
H19      H      0.898557215000     0.872616750000     0.142106620000     0.057775   
H19      H      0.898557215000     0.872616750000     0.642106620000     0.057775   
H20      H      0.427835250000     0.345028950000     0.169733585000     0.039971   
H20      H      0.427835250000     0.345028950000     0.669733585000     0.039971   
H20      H      0.427835250000     0.845028950000     0.169733585000     0.039971   
H20      H      0.427835250000     0.845028950000     0.669733585000     0.039971   
H20      H      0.927835250000     0.345028950000     0.169733585000     0.039971   
H20      H      0.927835250000     0.345028950000     0.669733585000     0.039971   
H20      H      0.927835250000     0.845028950000     0.169733585000     0.039971   
H20      H      0.927835250000     0.845028950000     0.669733585000     0.039971   
H21      H      0.327261565000     0.311628000000     0.203746975000     0.055053   
H21      H      0.327261565000     0.311628000000     0.703746975000     0.055053   
H21      H      0.327261565000     0.811628000000     0.203746975000     0.055053   
H21      H      0.327261565000     0.811628000000     0.703746975000     0.055053   
H21      H      0.827261565000     0.311628000000     0.203746975000     0.055053   
H21      H      0.827261565000     0.311628000000     0.703746975000     0.055053   
H21      H      0.827261565000     0.811628000000     0.203746975000     0.055053   
H21      H      0.827261565000     0.811628000000     0.703746975000     0.055053   
H22      H      0.371408600000     0.273374915000     0.197171150000     0.055313   
H22      H      0.371408600000     0.273374915000     0.697171150000     0.055313   
H22      H      0.371408600000     0.773374915000     0.197171150000     0.055313   
H22      H      0.371408600000     0.773374915000     0.697171150000     0.055313   
H22      H      0.871408600000     0.273374915000     0.197171150000     0.055313   
H22      H      0.871408600000     0.273374915000     0.697171150000     0.055313   
H22      H      0.871408600000     0.773374915000     0.197171150000     0.055313   
H22      H      0.871408600000     0.773374915000     0.697171150000     0.055313   
H23      H      0.338977650000     0.270347775000     0.227648365000     0.066597   
H23      H      0.338977650000     0.270347775000     0.727648365000     0.066597   
H23      H      0.338977650000     0.770347775000     0.227648365000     0.066597   
H23      H      0.338977650000     0.770347775000     0.727648365000     0.066597   
H23      H      0.838977650000     0.270347775000     0.227648365000     0.066597   
H23      H      0.838977650000     0.270347775000     0.727648365000     0.066597   
H23      H      0.838977650000     0.770347775000     0.227648365000     0.066597   
H23      H      0.838977650000     0.770347775000     0.727648365000     0.066597   
H24      H      0.239984500000     0.302517535000     0.051166675000     0.04794    
H24      H      0.239984500000     0.302517535000     0.551166675000     0.04794    
H24      H      0.239984500000     0.802517535000     0.051166675000     0.04794    
H24      H      0.239984500000     0.802517535000     0.551166675000     0.04794    
H24      H      0.739984500000     0.302517535000     0.051166675000     0.04794    
H24      H      0.739984500000     0.302517535000     0.551166675000     0.04794    
H24      H      0.739984500000     0.802517535000     0.051166675000     0.04794    
H24      H      0.739984500000     0.802517535000     0.551166675000     0.04794    
H25      H      0.203791230000     0.342951750000     0.066601365000     0.043773   
H25      H      0.203791230000     0.342951750000     0.566601365000     0.043773   
H25      H      0.203791230000     0.842951750000     0.066601365000     0.043773   
H25      H      0.203791230000     0.842951750000     0.566601365000     0.043773   
H25      H      0.703791230000     0.342951750000     0.066601365000     0.043773   
H25      H      0.703791230000     0.342951750000     0.566601365000     0.043773   
H25      H      0.703791230000     0.842951750000     0.066601365000     0.043773   
H25      H      0.703791230000     0.842951750000     0.566601365000     0.043773   
H26      H      0.191620635000     0.293120475000     0.063029475000     0.062102   
H26      H      0.191620635000     0.293120475000     0.563029475000     0.062102   
H26      H      0.191620635000     0.793120475000     0.063029475000     0.062102   
H26      H      0.191620635000     0.793120475000     0.563029475000     0.062102   
H26      H      0.691620635000     0.293120475000     0.063029475000     0.062102   
H26      H      0.691620635000     0.293120475000     0.563029475000     0.062102   
H26      H      0.691620635000     0.793120475000     0.063029475000     0.062102   
H26      H      0.691620635000     0.793120475000     0.563029475000     0.062102   
H27      H      0.264807580000     0.321438370000     0.185236110000     0.073435   
H27      H      0.264807580000     0.321438370000     0.685236110000     0.073435   
H27      H      0.264807580000     0.821438370000     0.185236110000     0.073435   
H27      H      0.264807580000     0.821438370000     0.685236110000     0.073435   
H27      H      0.764807580000     0.321438370000     0.185236110000     0.073435   
H27      H      0.764807580000     0.321438370000     0.685236110000     0.073435   
H27      H      0.764807580000     0.821438370000     0.185236110000     0.073435   
H27      H      0.764807580000     0.821438370000     0.685236110000     0.073435   
H28      H      0.271387250000     0.342204000000     0.087905550000     0.038896   
H28      H      0.271387250000     0.342204000000     0.587905550000     0.038896   
H28      H      0.271387250000     0.842204000000     0.087905550000     0.038896   
H28      H      0.271387250000     0.842204000000     0.587905550000     0.038896   
H28      H      0.771387250000     0.342204000000     0.087905550000     0.038896   
H28      H      0.771387250000     0.342204000000     0.587905550000     0.038896   
H28      H      0.771387250000     0.842204000000     0.087905550000     0.038896   
H28      H      0.771387250000     0.842204000000     0.587905550000     0.038896   
H29      H      0.498656800000     0.196958230000     0.333580650000     0.028913   
H29      H      0.498656800000     0.196958230000     0.833580650000     0.028913   
H29      H      0.498656800000     0.696958230000     0.333580650000     0.028913   
H29      H      0.498656800000     0.696958230000     0.833580650000     0.028913   
H29      H      0.998656800000     0.196958230000     0.333580650000     0.028913   
H29      H      0.998656800000     0.196958230000     0.833580650000     0.028913   
H29      H      0.998656800000     0.696958230000     0.333580650000     0.028913   
H29      H      0.998656800000     0.696958230000     0.833580650000     0.028913   
H30      H      0.010017750000     0.230989130000     0.381487800000     0.067424   
H30      H      0.010017750000     0.230989130000     0.881487800000     0.067424   
H30      H      0.010017750000     0.730989130000     0.381487800000     0.067424   
H30      H      0.010017750000     0.730989130000     0.881487800000     0.067424   
H30      H      0.510017750000     0.230989130000     0.381487800000     0.067424   
H30      H      0.510017750000     0.230989130000     0.881487800000     0.067424   
H30      H      0.510017750000     0.730989130000     0.381487800000     0.067424   
H30      H      0.510017750000     0.730989130000     0.881487800000     0.067424   
H31      H      0.343118800000     0.171537750000     0.437397630000    -0.464313   
H31      H      0.343118800000     0.171537750000     0.937397630000    -0.464313   
H31      H      0.343118800000     0.671537750000     0.437397630000    -0.464313   
H31      H      0.343118800000     0.671537750000     0.937397630000    -0.464313   
H31      H      0.843118800000     0.171537750000     0.437397630000    -0.464313   
H31      H      0.843118800000     0.171537750000     0.937397630000    -0.464313   
H31      H      0.843118800000     0.671537750000     0.437397630000    -0.464313   
H31      H      0.843118800000     0.671537750000     0.937397630000    -0.464313   
H32      H      0.331767975000     0.137502535000     0.389502200000    -0.632148   
H32      H      0.331767975000     0.137502535000     0.889502200000    -0.632148   
H32      H      0.331767975000     0.637502535000     0.389502200000    -0.632148   
H32      H      0.331767975000     0.637502535000     0.889502200000    -0.632148   
H32      H      0.831767975000     0.137502535000     0.389502200000    -0.632148   
H32      H      0.831767975000     0.137502535000     0.889502200000    -0.632148   
H32      H      0.831767975000     0.637502535000     0.389502200000    -0.632148   
H32      H      0.831767975000     0.637502535000     0.889502200000    -0.632148   
H33      H      0.448286535000     0.310615900000     0.462679850000     0.004431   
H33      H      0.448286535000     0.310615900000     0.962679850000     0.004431   
H33      H      0.448286535000     0.810615900000     0.462679850000     0.004431   
H33      H      0.448286535000     0.810615900000     0.962679850000     0.004431   
H33      H      0.948286535000     0.310615900000     0.462679850000     0.004431   
H33      H      0.948286535000     0.310615900000     0.962679850000     0.004431   
H33      H      0.948286535000     0.810615900000     0.462679850000     0.004431   
H33      H      0.948286535000     0.810615900000     0.962679850000     0.004431   
H34      H      0.461465600000     0.344777700000     0.010693195000     0.819095   
H34      H      0.461465600000     0.344777700000     0.510693195000     0.819095   
H34      H      0.461465600000     0.844777700000     0.010693195000     0.819095   
H34      H      0.461465600000     0.844777700000     0.510693195000     0.819095   
H34      H      0.961465600000     0.344777700000     0.010693195000     0.819095   
H34      H      0.961465600000     0.344777700000     0.510693195000     0.819095   
H34      H      0.961465600000     0.844777700000     0.010693195000     0.819095   
H34      H      0.961465600000     0.844777700000     0.510693195000     0.819095   
H35      H      0.452409180000     0.237453415000     0.059732260000     0.050034   
H35      H      0.452409180000     0.237453415000     0.559732260000     0.050034   
H35      H      0.452409180000     0.737453415000     0.059732260000     0.050034   
H35      H      0.452409180000     0.737453415000     0.559732260000     0.050034   
H35      H      0.952409180000     0.237453415000     0.059732260000     0.050034   
H35      H      0.952409180000     0.237453415000     0.559732260000     0.050034   
H35      H      0.952409180000     0.737453415000     0.059732260000     0.050034   
H35      H      0.952409180000     0.737453415000     0.559732260000     0.050034   
H36      H      0.441517700000     0.202758600000     0.011478665000     0.045314   
H36      H      0.441517700000     0.202758600000     0.511478665000     0.045314   
H36      H      0.441517700000     0.702758600000     0.011478665000     0.045314   
H36      H      0.441517700000     0.702758600000     0.511478665000     0.045314   
H36      H      0.941517700000     0.202758600000     0.011478665000     0.045314   
H36      H      0.941517700000     0.202758600000     0.511478665000     0.045314   
H36      H      0.941517700000     0.702758600000     0.011478665000     0.045314   
H36      H      0.941517700000     0.702758600000     0.511478665000     0.045314   
H37      H      0.393497700000     0.057863705000     0.308322250000     0.075639   
H37      H      0.393497700000     0.057863705000     0.808322250000     0.075639   
H37      H      0.393497700000     0.557863705000     0.308322250000     0.075639   
H37      H      0.393497700000     0.557863705000     0.808322250000     0.075639   
H37      H      0.893497700000     0.057863705000     0.308322250000     0.075639   
H37      H      0.893497700000     0.057863705000     0.808322250000     0.075639   
H37      H      0.893497700000     0.557863705000     0.308322250000     0.075639   
H37      H      0.893497700000     0.557863705000     0.808322250000     0.075639   
H38      H      0.380320670000     0.023682665000     0.260316730000     0.058908   
H38      H      0.380320670000     0.023682665000     0.760316730000     0.058908   
H38      H      0.380320670000     0.523682665000     0.260316730000     0.058908   
H38      H      0.380320670000     0.523682665000     0.760316730000     0.058908   
H38      H      0.880320670000     0.023682665000     0.260316730000     0.058908   
H38      H      0.880320670000     0.023682665000     0.760316730000     0.058908   
H38      H      0.880320670000     0.523682665000     0.260316730000     0.058908   
H38      H      0.880320670000     0.523682665000     0.760316730000     0.058908   
H39      H      0.389402100000     0.130980330000     0.211249620000     0.057649   
H39      H      0.389402100000     0.130980330000     0.711249620000     0.057649   
H39      H      0.389402100000     0.630980330000     0.211249620000     0.057649   
H39      H      0.389402100000     0.630980330000     0.711249620000     0.057649   
H39      H      0.889402100000     0.130980330000     0.211249620000     0.057649   
H39      H      0.889402100000     0.130980330000     0.711249620000     0.057649   
H39      H      0.889402100000     0.630980330000     0.211249620000     0.057649   
H39      H      0.889402100000     0.630980330000     0.711249620000     0.057649   
H40      H      0.400277700000     0.165693430000     0.259487120000     0.064315   
H40      H      0.400277700000     0.165693430000     0.759487120000     0.064315   
H40      H      0.400277700000     0.665693430000     0.259487120000     0.064315   
H40      H      0.400277700000     0.665693430000     0.759487120000     0.064315   
H40      H      0.900277700000     0.165693430000     0.259487120000     0.064315   
H40      H      0.900277700000     0.165693430000     0.759487120000     0.064315   
H40      H      0.900277700000     0.665693430000     0.259487120000     0.064315   
H40      H      0.900277700000     0.665693430000     0.759487120000     0.064315   
H41      H      0.457789800000     0.219810875000     0.137951075000     0.064649   
H41      H      0.457789800000     0.219810875000     0.637951075000     0.064649   
H41      H      0.457789800000     0.719810875000     0.137951075000     0.064649   
H41      H      0.457789800000     0.719810875000     0.637951075000     0.064649   
H41      H      0.957789800000     0.219810875000     0.137951075000     0.064649   
H41      H      0.957789800000     0.219810875000     0.637951075000     0.064649   
H41      H      0.957789800000     0.719810875000     0.137951075000     0.064649   
H41      H      0.957789800000     0.719810875000     0.637951075000     0.064649   
H42      H      0.376563650000     0.133330835000     0.124035650000     0.054921   
H42      H      0.376563650000     0.133330835000     0.624035650000     0.054921   
H42      H      0.376563650000     0.633330835000     0.124035650000     0.054921   
H42      H      0.376563650000     0.633330835000     0.624035650000     0.054921   
H42      H      0.876563650000     0.133330835000     0.124035650000     0.054921   
H42      H      0.876563650000     0.133330835000     0.624035650000     0.054921   
H42      H      0.876563650000     0.633330835000     0.124035650000     0.054921   
H42      H      0.876563650000     0.633330835000     0.624035650000     0.054921   
H43      H      0.217471675000     0.480422675000     0.117894470000     0.059673   
H43      H      0.217471675000     0.480422675000     0.617894470000     0.059673   
H43      H      0.217471675000     0.980422675000     0.117894470000     0.059673   
H43      H      0.217471675000     0.980422675000     0.617894470000     0.059673   
H43      H      0.717471675000     0.480422675000     0.117894470000     0.059673   
H43      H      0.717471675000     0.480422675000     0.617894470000     0.059673   
H43      H      0.717471675000     0.980422675000     0.117894470000     0.059673   
H43      H      0.717471675000     0.980422675000     0.617894470000     0.059673   
H44      H      0.077997515000     0.452902700000     0.132319540000     0.047837   
H44      H      0.077997515000     0.452902700000     0.632319540000     0.047837   
H44      H      0.077997515000     0.952902700000     0.132319540000     0.047837   
H44      H      0.077997515000     0.952902700000     0.632319540000     0.047837   
H44      H      0.577997515000     0.452902700000     0.132319540000     0.047837   
H44      H      0.577997515000     0.452902700000     0.632319540000     0.047837   
H44      H      0.577997515000     0.952902700000     0.132319540000     0.047837   
H44      H      0.577997515000     0.952902700000     0.632319540000     0.047837   
H45      H      0.079933120000     0.155745750000     0.146793850000     0.029607   
H45      H      0.079933120000     0.155745750000     0.646793850000     0.029607   
H45      H      0.079933120000     0.655745750000     0.146793850000     0.029607   
H45      H      0.079933120000     0.655745750000     0.646793850000     0.029607   
H45      H      0.579933120000     0.155745750000     0.146793850000     0.029607   
H45      H      0.579933120000     0.155745750000     0.646793850000     0.029607   
H45      H      0.579933120000     0.655745750000     0.146793850000     0.029607   
H45      H      0.579933120000     0.655745750000     0.646793850000     0.029607   
H46      H      0.042664945000     0.129666520000     0.162030160000     0.067524   
H46      H      0.042664945000     0.129666520000     0.662030160000     0.067524   
H46      H      0.042664945000     0.629666520000     0.162030160000     0.067524   
H46      H      0.042664945000     0.629666520000     0.662030160000     0.067524   
H46      H      0.542664945000     0.129666520000     0.162030160000     0.067524   
H46      H      0.542664945000     0.129666520000     0.662030160000     0.067524   
H46      H      0.542664945000     0.629666520000     0.162030160000     0.067524   
H46      H      0.542664945000     0.629666520000     0.662030160000     0.067524   
H47      H      0.043140180000     0.220309465000     0.169648810000     0.073515   
H47      H      0.043140180000     0.220309465000     0.669648810000     0.073515   
H47      H      0.043140180000     0.720309465000     0.169648810000     0.073515   
H47      H      0.043140180000     0.720309465000     0.669648810000     0.073515   
H47      H      0.543140180000     0.220309465000     0.169648810000     0.073515   
H47      H      0.543140180000     0.220309465000     0.669648810000     0.073515   
H47      H      0.543140180000     0.720309465000     0.169648810000     0.073515   
H47      H      0.543140180000     0.720309465000     0.669648810000     0.073515   
H48      H      0.009925250000     0.190807730000     0.187171740000     0.06509    
H48      H      0.009925250000     0.190807730000     0.687171740000     0.06509    
H48      H      0.009925250000     0.690807730000     0.187171740000     0.06509    
H48      H      0.009925250000     0.690807730000     0.687171740000     0.06509    
H48      H      0.509925250000     0.190807730000     0.187171740000     0.06509    
H48      H      0.509925250000     0.190807730000     0.687171740000     0.06509    
H48      H      0.509925250000     0.690807730000     0.187171740000     0.06509    
H48      H      0.509925250000     0.690807730000     0.687171740000     0.06509    
H49      H      0.069258660000     0.151940480000     0.214815215000     0.067429   
H49      H      0.069258660000     0.151940480000     0.714815215000     0.067429   
H49      H      0.069258660000     0.651940480000     0.214815215000     0.067429   
H49      H      0.069258660000     0.651940480000     0.714815215000     0.067429   
H49      H      0.569258660000     0.151940480000     0.214815215000     0.067429   
H49      H      0.569258660000     0.151940480000     0.714815215000     0.067429   
H49      H      0.569258660000     0.651940480000     0.214815215000     0.067429   
H49      H      0.569258660000     0.651940480000     0.714815215000     0.067429   
H50      H      0.066255295000     0.204738850000     0.222734170000     0.022338   
H50      H      0.066255295000     0.204738850000     0.722734170000     0.022338   
H50      H      0.066255295000     0.704738850000     0.222734170000     0.022338   
H50      H      0.066255295000     0.704738850000     0.722734170000     0.022338   
H50      H      0.566255295000     0.204738850000     0.222734170000     0.022338   
H50      H      0.566255295000     0.204738850000     0.722734170000     0.022338   
H50      H      0.566255295000     0.704738850000     0.222734170000     0.022338   
H50      H      0.566255295000     0.704738850000     0.722734170000     0.022338   
H51      H      0.102968950000     0.180732350000     0.196563930000     0.0607     
H51      H      0.102968950000     0.180732350000     0.696563930000     0.0607     
H51      H      0.102968950000     0.680732350000     0.196563930000     0.0607     
H51      H      0.102968950000     0.680732350000     0.696563930000     0.0607     
H51      H      0.602968950000     0.180732350000     0.196563930000     0.0607     
H51      H      0.602968950000     0.180732350000     0.696563930000     0.0607     
H51      H      0.602968950000     0.680732350000     0.196563930000     0.0607     
H51      H      0.602968950000     0.680732350000     0.696563930000     0.0607     
H52      H      0.442202300000     0.033762340000     0.076036670000     0.047777   
H52      H      0.442202300000     0.033762340000     0.576036670000     0.047777   
H52      H      0.442202300000     0.533762340000     0.076036670000     0.047777   
H52      H      0.442202300000     0.533762340000     0.576036670000     0.047777   
H52      H      0.942202300000     0.033762340000     0.076036670000     0.047777   
H52      H      0.942202300000     0.033762340000     0.576036670000     0.047777   
H52      H      0.942202300000     0.533762340000     0.076036670000     0.047777   
H52      H      0.942202300000     0.533762340000     0.576036670000     0.047777   
H53      H      0.459593475000     0.079961860000     0.069563950000     0.0655     
H53      H      0.459593475000     0.079961860000     0.569563950000     0.0655     
H53      H      0.459593475000     0.579961860000     0.069563950000     0.0655     
H53      H      0.459593475000     0.579961860000     0.569563950000     0.0655     
H53      H      0.959593475000     0.079961860000     0.069563950000     0.0655     
H53      H      0.959593475000     0.079961860000     0.569563950000     0.0655     
H53      H      0.959593475000     0.579961860000     0.069563950000     0.0655     
H53      H      0.959593475000     0.579961860000     0.569563950000     0.0655     
H54      H      0.369951300000     0.067082645000     0.072676480000     0.054915   
H54      H      0.369951300000     0.067082645000     0.572676480000     0.054915   
H54      H      0.369951300000     0.567082645000     0.072676480000     0.054915   
H54      H      0.369951300000     0.567082645000     0.572676480000     0.054915   
H54      H      0.869951300000     0.067082645000     0.072676480000     0.054915   
H54      H      0.869951300000     0.067082645000     0.572676480000     0.054915   
H54      H      0.869951300000     0.567082645000     0.072676480000     0.054915   
H54      H      0.869951300000     0.567082645000     0.572676480000     0.054915   
H55      H      0.386638880000     0.114003995000     0.065399885000     0.068224   
H55      H      0.386638880000     0.114003995000     0.565399885000     0.068224   
H55      H      0.386638880000     0.614003995000     0.065399885000     0.068224   
H55      H      0.386638880000     0.614003995000     0.565399885000     0.068224   
H55      H      0.886638880000     0.114003995000     0.065399885000     0.068224   
H55      H      0.886638880000     0.114003995000     0.565399885000     0.068224   
H55      H      0.886638880000     0.614003995000     0.065399885000     0.068224   
H55      H      0.886638880000     0.614003995000     0.565399885000     0.068224   
H56      H      0.420454325000     0.084556385000     0.018334210000     0.075692   
H56      H      0.420454325000     0.084556385000     0.518334210000     0.075692   
H56      H      0.420454325000     0.584556385000     0.018334210000     0.075692   
H56      H      0.420454325000     0.584556385000     0.518334210000     0.075692   
H56      H      0.920454325000     0.084556385000     0.018334210000     0.075692   
H56      H      0.920454325000     0.084556385000     0.518334210000     0.075692   
H56      H      0.920454325000     0.584556385000     0.018334210000     0.075692   
H56      H      0.920454325000     0.584556385000     0.518334210000     0.075692   
H57      H      0.366979950000     0.081578890000     0.017447940000    -0.08422    
H57      H      0.366979950000     0.081578890000     0.517447940000    -0.08422    
H57      H      0.366979950000     0.581578890000     0.017447940000    -0.08422    
H57      H      0.366979950000     0.581578890000     0.517447940000    -0.08422    
H57      H      0.866979950000     0.081578890000     0.017447940000    -0.08422    
H57      H      0.866979950000     0.081578890000     0.517447940000    -0.08422    
H57      H      0.866979950000     0.581578890000     0.017447940000    -0.08422    
H57      H      0.866979950000     0.581578890000     0.517447940000    -0.08422    
H58      H      0.403082670000     0.037604935000     0.025657930000    -0.117      
H58      H      0.403082670000     0.037604935000     0.525657930000    -0.117      
H58      H      0.403082670000     0.537604935000     0.025657930000    -0.117      
H58      H      0.403082670000     0.537604935000     0.525657930000    -0.117      
H58      H      0.903082670000     0.037604935000     0.025657930000    -0.117      
H58      H      0.903082670000     0.037604935000     0.525657930000    -0.117      
H58      H      0.903082670000     0.537604935000     0.025657930000    -0.117      
H58      H      0.903082670000     0.537604935000     0.525657930000    -0.117      
H59      H      0.192277460000     0.088078760000     0.126859410000     0.057219   
H59      H      0.192277460000     0.088078760000     0.626859410000     0.057219   
H59      H      0.192277460000     0.588078760000     0.126859410000     0.057219   
H59      H      0.192277460000     0.588078760000     0.626859410000     0.057219   
H59      H      0.692277460000     0.088078760000     0.126859410000     0.057219   
H59      H      0.692277460000     0.088078760000     0.626859410000     0.057219   
H59      H      0.692277460000     0.588078760000     0.126859410000     0.057219   
H59      H      0.692277460000     0.588078760000     0.626859410000     0.057219   
H60      H      0.209136485000     0.041157810000     0.143910215000     0.052756   
H60      H      0.209136485000     0.041157810000     0.643910215000     0.052756   
H60      H      0.209136485000     0.541157810000     0.143910215000     0.052756   
H60      H      0.209136485000     0.541157810000     0.643910215000     0.052756   
H60      H      0.709136485000     0.041157810000     0.143910215000     0.052756   
H60      H      0.709136485000     0.041157810000     0.643910215000     0.052756   
H60      H      0.709136485000     0.541157810000     0.143910215000     0.052756   
H60      H      0.709136485000     0.541157810000     0.643910215000     0.052756   
H61      H      0.125567390000     0.093181545000     0.153281780000     0.050453   
H61      H      0.125567390000     0.093181545000     0.653281780000     0.050453   
H61      H      0.125567390000     0.593181545000     0.153281780000     0.050453   
H61      H      0.125567390000     0.593181545000     0.653281780000     0.050453   
H61      H      0.625567390000     0.093181545000     0.153281780000     0.050453   
H61      H      0.625567390000     0.093181545000     0.653281780000     0.050453   
H61      H      0.625567390000     0.593181545000     0.153281780000     0.050453   
H61      H      0.625567390000     0.593181545000     0.653281780000     0.050453   
H62      H      0.144192050000     0.047391435000     0.172661750000     0.06132    
H62      H      0.144192050000     0.047391435000     0.672661750000     0.06132    
H62      H      0.144192050000     0.547391435000     0.172661750000     0.06132    
H62      H      0.144192050000     0.547391435000     0.672661750000     0.06132    
H62      H      0.644192050000     0.047391435000     0.172661750000     0.06132    
H62      H      0.644192050000     0.047391435000     0.672661750000     0.06132    
H62      H      0.644192050000     0.547391435000     0.172661750000     0.06132    
H62      H      0.644192050000     0.547391435000     0.672661750000     0.06132    
H63      H      0.201333120000     0.078603210000     0.195941565000     0.074723   
H63      H      0.201333120000     0.078603210000     0.695941565000     0.074723   
H63      H      0.201333120000     0.578603210000     0.195941565000     0.074723   
H63      H      0.201333120000     0.578603210000     0.695941565000     0.074723   
H63      H      0.701333120000     0.078603210000     0.195941565000     0.074723   
H63      H      0.701333120000     0.078603210000     0.695941565000     0.074723   
H63      H      0.701333120000     0.578603210000     0.195941565000     0.074723   
H63      H      0.701333120000     0.578603210000     0.695941565000     0.074723   
H64      H      0.152574480000     0.106099900000     0.205186935000     0.037283   
H64      H      0.152574480000     0.106099900000     0.705186935000     0.037283   
H64      H      0.152574480000     0.606099900000     0.205186935000     0.037283   
H64      H      0.152574480000     0.606099900000     0.705186935000     0.037283   
H64      H      0.652574480000     0.106099900000     0.205186935000     0.037283   
H64      H      0.652574480000     0.106099900000     0.705186935000     0.037283   
H64      H      0.652574480000     0.606099900000     0.205186935000     0.037283   
H64      H      0.652574480000     0.606099900000     0.705186935000     0.037283   
H65      H      0.182214915000     0.124824735000     0.176694500000    -0.035699   
H65      H      0.182214915000     0.124824735000     0.676694500000    -0.035699   
H65      H      0.182214915000     0.624824735000     0.176694500000    -0.035699   
H65      H      0.182214915000     0.624824735000     0.676694500000    -0.035699   
H65      H      0.682214915000     0.124824735000     0.176694500000    -0.035699   
H65      H      0.682214915000     0.124824735000     0.676694500000    -0.035699   
H65      H      0.682214915000     0.624824735000     0.176694500000    -0.035699   
H65      H      0.682214915000     0.624824735000     0.676694500000    -0.035699   
H66      H      0.106948200000     0.344009150000     0.125389400000     0.065771   
H66      H      0.106948200000     0.344009150000     0.625389400000     0.065771   
H66      H      0.106948200000     0.844009150000     0.125389400000     0.065771   
H66      H      0.106948200000     0.844009150000     0.625389400000     0.065771   
H66      H      0.606948200000     0.344009150000     0.125389400000     0.065771   
H66      H      0.606948200000     0.344009150000     0.625389400000     0.065771   
H66      H      0.606948200000     0.844009150000     0.125389400000     0.065771   
H66      H      0.606948200000     0.844009150000     0.625389400000     0.065771   
H67      H      0.138960240000     0.363389970000     0.099260820000     0.053137   
H67      H      0.138960240000     0.363389970000     0.599260820000     0.053137   
H67      H      0.138960240000     0.863389970000     0.099260820000     0.053137   
H67      H      0.138960240000     0.863389970000     0.599260820000     0.053137   
H67      H      0.638960240000     0.363389970000     0.099260820000     0.053137   
H67      H      0.638960240000     0.363389970000     0.599260820000     0.053137   
H67      H      0.638960240000     0.863389970000     0.099260820000     0.053137   
H67      H      0.638960240000     0.863389970000     0.599260820000     0.053137   
H68      H      0.088627345000     0.390006950000     0.107052080000     0.037166   
H68      H      0.088627345000     0.390006950000     0.607052080000     0.037166   
H68      H      0.088627345000     0.890006950000     0.107052080000     0.037166   
H68      H      0.088627345000     0.890006950000     0.607052080000     0.037166   
H68      H      0.588627345000     0.390006950000     0.107052080000     0.037166   
H68      H      0.588627345000     0.390006950000     0.607052080000     0.037166   
H68      H      0.588627345000     0.890006950000     0.107052080000     0.037166   
H68      H      0.588627345000     0.890006950000     0.607052080000     0.037166   
H69      H      0.162358940000     0.349955680000     0.432528950000     0.078411   
H69      H      0.162358940000     0.349955680000     0.932528950000     0.078411   
H69      H      0.162358940000     0.849955680000     0.432528950000     0.078411   
H69      H      0.162358940000     0.849955680000     0.932528950000     0.078411   
H69      H      0.662358940000     0.349955680000     0.432528950000     0.078411   
H69      H      0.662358940000     0.349955680000     0.932528950000     0.078411   
H69      H      0.662358940000     0.849955680000     0.432528950000     0.078411   
H69      H      0.662358940000     0.849955680000     0.932528950000     0.078411   
H70      H      0.137676420000     0.338767650000     0.380985450000     0.072468   
H70      H      0.137676420000     0.338767650000     0.880985450000     0.072468   
H70      H      0.137676420000     0.838767650000     0.380985450000     0.072468   
H70      H      0.137676420000     0.838767650000     0.880985450000     0.072468   
H70      H      0.637676420000     0.338767650000     0.380985450000     0.072468   
H70      H      0.637676420000     0.338767650000     0.880985450000     0.072468   
H70      H      0.637676420000     0.838767650000     0.380985450000     0.072468   
H70      H      0.637676420000     0.838767650000     0.880985450000     0.072468   
H71      H      0.181490630000     0.018231390000     0.340134380000     0.14592    
H71      H      0.181490630000     0.018231390000     0.840134380000     0.14592    
H71      H      0.181490630000     0.518231390000     0.340134380000     0.14592    
H71      H      0.181490630000     0.518231390000     0.840134380000     0.14592    
H71      H      0.681490630000     0.018231390000     0.340134380000     0.14592    
H71      H      0.681490630000     0.018231390000     0.840134380000     0.14592    
H71      H      0.681490630000     0.518231390000     0.340134380000     0.14592    
H71      H      0.681490630000     0.518231390000     0.840134380000     0.14592    
H72      H      0.206180515000     0.029411020000     0.391666400000     0.174569   
H72      H      0.206180515000     0.029411020000     0.891666400000     0.174569   
H72      H      0.206180515000     0.529411020000     0.391666400000     0.174569   
H72      H      0.206180515000     0.529411020000     0.891666400000     0.174569   
H72      H      0.706180515000     0.029411020000     0.391666400000     0.174569   
H72      H      0.706180515000     0.029411020000     0.891666400000     0.174569   
H72      H      0.706180515000     0.529411020000     0.391666400000     0.174569   
H72      H      0.706180515000     0.529411020000     0.891666400000     0.174569   
H73      H      0.063327100000     0.397590130000     0.294762350000     0.117043   
H73      H      0.063327100000     0.397590130000     0.794762350000     0.117043   
H73      H      0.063327100000     0.897590130000     0.294762350000     0.117043   
H73      H      0.063327100000     0.897590130000     0.794762350000     0.117043   
H73      H      0.563327100000     0.397590130000     0.294762350000     0.117043   
H73      H      0.563327100000     0.397590130000     0.794762350000     0.117043   
H73      H      0.563327100000     0.897590130000     0.294762350000     0.117043   
H73      H      0.563327100000     0.897590130000     0.794762350000     0.117043   
H74      H      0.038779415000     0.384583980000     0.243018165000     0.184539   
H74      H      0.038779415000     0.384583980000     0.743018165000     0.184539   
H74      H      0.038779415000     0.884583980000     0.243018165000     0.184539   
H74      H      0.038779415000     0.884583980000     0.743018165000     0.184539   
H74      H      0.538779415000     0.384583980000     0.243018165000     0.184539   
H74      H      0.538779415000     0.384583980000     0.743018165000     0.184539   
H74      H      0.538779415000     0.884583980000     0.243018165000     0.184539   
H74      H      0.538779415000     0.884583980000     0.743018165000     0.184539   
H75      H      0.149936585000     0.412454425000     0.207304015000    -0.082265   
H75      H      0.149936585000     0.412454425000     0.707304015000    -0.082265   
H75      H      0.149936585000     0.912454425000     0.207304015000    -0.082265   
H75      H      0.149936585000     0.912454425000     0.707304015000    -0.082265   
H75      H      0.649936585000     0.412454425000     0.207304015000    -0.082265   
H75      H      0.649936585000     0.412454425000     0.707304015000    -0.082265   
H75      H      0.649936585000     0.912454425000     0.207304015000    -0.082265   
H75      H      0.649936585000     0.912454425000     0.707304015000    -0.082265   
H76      H      0.175281910000     0.423228770000     0.259242980000     0.152497   
H76      H      0.175281910000     0.423228770000     0.759242980000     0.152497   
H76      H      0.175281910000     0.923228770000     0.259242980000     0.152497   
H76      H      0.175281910000     0.923228770000     0.759242980000     0.152497   
H76      H      0.675281910000     0.423228770000     0.259242980000     0.152497   
H76      H      0.675281910000     0.423228770000     0.759242980000     0.152497   
H76      H      0.675281910000     0.923228770000     0.259242980000     0.152497   
H76      H      0.675281910000     0.923228770000     0.759242980000     0.152497   
H77      H      0.280543250000     0.470592825000     0.477878950000     0.129647   
H77      H      0.280543250000     0.470592825000     0.977878950000     0.129647   
H77      H      0.280543250000     0.970592825000     0.477878950000     0.129647   
H77      H      0.280543250000     0.970592825000     0.977878950000     0.129647   
H77      H      0.780543250000     0.470592825000     0.477878950000     0.129647   
H77      H      0.780543250000     0.470592825000     0.977878950000     0.129647   
H77      H      0.780543250000     0.970592825000     0.477878950000     0.129647   
H77      H      0.780543250000     0.970592825000     0.977878950000     0.129647   
H78      H      0.305111170000     0.483600200000     0.029617550000     0.168928   
H78      H      0.305111170000     0.483600200000     0.529617550000     0.168928   
H78      H      0.305111170000     0.983600200000     0.029617550000     0.168928   
H78      H      0.305111170000     0.983600200000     0.529617550000     0.168928   
H78      H      0.805111170000     0.483600200000     0.029617550000     0.168928   
H78      H      0.805111170000     0.483600200000     0.529617550000     0.168928   
H78      H      0.805111170000     0.983600200000     0.029617550000     0.168928   
H78      H      0.805111170000     0.983600200000     0.529617550000     0.168928   
H79      H      0.193979220000     0.455705800000     0.065361200000    -0.168152   
H79      H      0.193979220000     0.455705800000     0.565361200000    -0.168152   
H79      H      0.193979220000     0.955705800000     0.065361200000    -0.168152   
H79      H      0.193979220000     0.955705800000     0.565361200000    -0.168152   
H79      H      0.693979220000     0.455705800000     0.065361200000    -0.168152   
H79      H      0.693979220000     0.455705800000     0.565361200000    -0.168152   
H79      H      0.693979220000     0.955705800000     0.065361200000    -0.168152   
H79      H      0.693979220000     0.955705800000     0.565361200000    -0.168152   
H80      H      0.168611540000     0.444943150000     0.013436735000     0.035231   
H80      H      0.168611540000     0.444943150000     0.513436735000     0.035231   
H80      H      0.168611540000     0.944943150000     0.013436735000     0.035231   
H80      H      0.168611540000     0.944943150000     0.513436735000     0.035231   
H80      H      0.668611540000     0.444943150000     0.013436735000     0.035231   
H80      H      0.668611540000     0.444943150000     0.513436735000     0.035231   
H80      H      0.668611540000     0.944943150000     0.013436735000     0.035231   
H80      H      0.668611540000     0.944943150000     0.513436735000     0.035231   
H81      H      0.444712430000     0.364188435000     0.141938375000     0.078055   
H81      H      0.444712430000     0.364188435000     0.641938375000     0.078055   
H81      H      0.444712430000     0.864188435000     0.141938375000     0.078055   
H81      H      0.444712430000     0.864188435000     0.641938375000     0.078055   
H81      H      0.944712430000     0.364188435000     0.141938375000     0.078055   
H81      H      0.944712430000     0.364188435000     0.641938375000     0.078055   
H81      H      0.944712430000     0.864188435000     0.141938375000     0.078055   
H81      H      0.944712430000     0.864188435000     0.641938375000     0.078055   
H82      H      0.142318220000     0.255582900000     0.110096425000    -0.007983   
H82      H      0.142318220000     0.255582900000     0.610096425000    -0.007983   
H82      H      0.142318220000     0.755582900000     0.110096425000    -0.007983   
H82      H      0.142318220000     0.755582900000     0.610096425000    -0.007983   
H82      H      0.642318220000     0.255582900000     0.110096425000    -0.007983   
H82      H      0.642318220000     0.255582900000     0.610096425000    -0.007983   
H82      H      0.642318220000     0.755582900000     0.110096425000    -0.007983   
H82      H      0.642318220000     0.755582900000     0.610096425000    -0.007983   
H83      H      0.188555135000     0.094099545000     0.140338850000    -0.089445   
H83      H      0.188555135000     0.094099545000     0.640338850000    -0.089445   
H83      H      0.188555135000     0.594099545000     0.140338850000    -0.089445   
H83      H      0.188555135000     0.594099545000     0.640338850000    -0.089445   
H83      H      0.688555135000     0.094099545000     0.140338850000    -0.089445   
H83      H      0.688555135000     0.094099545000     0.640338850000    -0.089445   
H83      H      0.688555135000     0.594099545000     0.140338850000    -0.089445   
H83      H      0.688555135000     0.594099545000     0.640338850000    -0.089445   
H84      H      0.400803300000     0.024553965000     0.160791950000    -0.026316   
H84      H      0.400803300000     0.024553965000     0.660791950000    -0.026316   
H84      H      0.400803300000     0.524553965000     0.160791950000    -0.026316   
H84      H      0.400803300000     0.524553965000     0.660791950000    -0.026316   
H84      H      0.900803300000     0.024553965000     0.160791950000    -0.026316   
H84      H      0.900803300000     0.024553965000     0.660791950000    -0.026316   
H84      H      0.900803300000     0.524553965000     0.160791950000    -0.026316   
H84      H      0.900803300000     0.524553965000     0.660791950000    -0.026316   
C85      C      0.230154260000     0.369625600000     0.136925740000    -0.042126   
C85      C      0.230154260000     0.369625600000     0.636925740000    -0.042126   
C85      C      0.230154260000     0.869625600000     0.136925740000    -0.042126   
C85      C      0.230154260000     0.869625600000     0.636925740000    -0.042126   
C85      C      0.730154260000     0.369625600000     0.136925740000    -0.042126   
C85      C      0.730154260000     0.369625600000     0.636925740000    -0.042126   
C85      C      0.730154260000     0.869625600000     0.136925740000    -0.042126   
C85      C      0.730154260000     0.869625600000     0.636925740000    -0.042126   
C86      C      0.361990125000     0.248275370000     0.133248465000    -0.018432   
C86      C      0.361990125000     0.248275370000     0.633248465000    -0.018432   
C86      C      0.361990125000     0.748275370000     0.133248465000    -0.018432   
C86      C      0.361990125000     0.748275370000     0.633248465000    -0.018432   
C86      C      0.861990125000     0.248275370000     0.133248465000    -0.018432   
C86      C      0.861990125000     0.248275370000     0.633248465000    -0.018432   
C86      C      0.861990125000     0.748275370000     0.133248465000    -0.018432   
C86      C      0.861990125000     0.748275370000     0.633248465000    -0.018432   
C87      C      0.307287600000     0.358145625000     0.143927125000    -0.028228   
C87      C      0.307287600000     0.358145625000     0.643927125000    -0.028228   
C87      C      0.307287600000     0.858145625000     0.143927125000    -0.028228   
C87      C      0.307287600000     0.858145625000     0.643927125000    -0.028228   
C87      C      0.807287600000     0.358145625000     0.143927125000    -0.028228   
C87      C      0.807287600000     0.358145625000     0.643927125000    -0.028228   
C87      C      0.807287600000     0.858145625000     0.143927125000    -0.028228   
C87      C      0.807287600000     0.858145625000     0.643927125000    -0.028228   
C88      C      0.344687880000     0.325145650000     0.136433215000    -0.020198   
C88      C      0.344687880000     0.325145650000     0.636433215000    -0.020198   
C88      C      0.344687880000     0.825145650000     0.136433215000    -0.020198   
C88      C      0.344687880000     0.825145650000     0.636433215000    -0.020198   
C88      C      0.844687880000     0.325145650000     0.136433215000    -0.020198   
C88      C      0.844687880000     0.325145650000     0.636433215000    -0.020198   
C88      C      0.844687880000     0.825145650000     0.136433215000    -0.020198   
C88      C      0.844687880000     0.825145650000     0.636433215000    -0.020198   
C89      C      0.263692400000     0.308160125000     0.162132550000    -0.046607   
C89      C      0.263692400000     0.308160125000     0.662132550000    -0.046607   
C89      C      0.263692400000     0.808160125000     0.162132550000    -0.046607   
C89      C      0.263692400000     0.808160125000     0.662132550000    -0.046607   
C89      C      0.763692400000     0.308160125000     0.162132550000    -0.046607   
C89      C      0.763692400000     0.308160125000     0.662132550000    -0.046607   
C89      C      0.763692400000     0.808160125000     0.162132550000    -0.046607   
C89      C      0.763692400000     0.808160125000     0.662132550000    -0.046607   
C90      C      0.267630050000     0.318225235000     0.104323290000     0.229208   
C90      C      0.267630050000     0.318225235000     0.604323290000     0.229208   
C90      C      0.267630050000     0.818225235000     0.104323290000     0.229208   
C90      C      0.267630050000     0.818225235000     0.604323290000     0.229208   
C90      C      0.767630050000     0.318225235000     0.104323290000     0.229208   
C90      C      0.767630050000     0.318225235000     0.604323290000     0.229208   
C90      C      0.767630050000     0.818225235000     0.104323290000     0.229208   
C90      C      0.767630050000     0.818225235000     0.604323290000     0.229208   
C91      C      0.266715950000     0.338808150000     0.137071865000     0.060429   
C91      C      0.266715950000     0.338808150000     0.637071865000     0.060429   
C91      C      0.266715950000     0.838808150000     0.137071865000     0.060429   
C91      C      0.266715950000     0.838808150000     0.637071865000     0.060429   
C91      C      0.766715950000     0.338808150000     0.137071865000     0.060429   
C91      C      0.766715950000     0.338808150000     0.637071865000     0.060429   
C91      C      0.766715950000     0.838808150000     0.137071865000     0.060429   
C91      C      0.766715950000     0.838808150000     0.637071865000     0.060429   
C92      C      0.285530550000     0.399497250000     0.189172715000     0.262464   
C92      C      0.285530550000     0.399497250000     0.689172715000     0.262464   
C92      C      0.285530550000     0.899497250000     0.189172715000     0.262464   
C92      C      0.285530550000     0.899497250000     0.689172715000     0.262464   
C92      C      0.785530550000     0.399497250000     0.189172715000     0.262464   
C92      C      0.785530550000     0.399497250000     0.689172715000     0.262464   
C92      C      0.785530550000     0.899497250000     0.189172715000     0.262464   
C92      C      0.785530550000     0.899497250000     0.689172715000     0.262464   
C93      C      0.328317435000     0.281975985000     0.132945600000     0.178106   
C93      C      0.328317435000     0.281975985000     0.632945600000     0.178106   
C93      C      0.328317435000     0.781975985000     0.132945600000     0.178106   
C93      C      0.328317435000     0.781975985000     0.632945600000     0.178106   
C93      C      0.828317435000     0.281975985000     0.132945600000     0.178106   
C93      C      0.828317435000     0.281975985000     0.632945600000     0.178106   
C93      C      0.828317435000     0.781975985000     0.132945600000     0.178106   
C93      C      0.828317435000     0.781975985000     0.632945600000     0.178106   
C94      C      0.257719550000     0.219713100000     0.166351230000     0.176192   
C94      C      0.257719550000     0.219713100000     0.666351230000     0.176192   
C94      C      0.257719550000     0.719713100000     0.166351230000     0.176192   
C94      C      0.257719550000     0.719713100000     0.666351230000     0.176192   
C94      C      0.757719550000     0.219713100000     0.166351230000     0.176192   
C94      C      0.757719550000     0.219713100000     0.666351230000     0.176192   
C94      C      0.757719550000     0.719713100000     0.166351230000     0.176192   
C94      C      0.757719550000     0.719713100000     0.666351230000     0.176192   
C95      C      0.331228225000     0.420035600000     0.130085675000    -0.043322   
C95      C      0.331228225000     0.420035600000     0.630085675000    -0.043322   
C95      C      0.331228225000     0.920035600000     0.130085675000    -0.043322   
C95      C      0.331228225000     0.920035600000     0.630085675000    -0.043322   
C95      C      0.831228225000     0.420035600000     0.130085675000    -0.043322   
C95      C      0.831228225000     0.420035600000     0.630085675000    -0.043322   
C95      C      0.831228225000     0.920035600000     0.130085675000    -0.043322   
C95      C      0.831228225000     0.920035600000     0.630085675000    -0.043322   
C96      C      0.396909150000     0.315256150000     0.098340340000     0.020675   
C96      C      0.396909150000     0.315256150000     0.598340340000     0.020675   
C96      C      0.396909150000     0.815256150000     0.098340340000     0.020675   
C96      C      0.396909150000     0.815256150000     0.598340340000     0.020675   
C96      C      0.896909150000     0.315256150000     0.098340340000     0.020675   
C96      C      0.896909150000     0.315256150000     0.598340340000     0.020675   
C96      C      0.896909150000     0.815256150000     0.098340340000     0.020675   
C96      C      0.896909150000     0.815256150000     0.598340340000     0.020675   
C97      C      0.396354230000     0.356229700000     0.163256700000    -0.049533   
C97      C      0.396354230000     0.356229700000     0.663256700000    -0.049533   
C97      C      0.396354230000     0.856229700000     0.163256700000    -0.049533   
C97      C      0.396354230000     0.856229700000     0.663256700000    -0.049533   
C97      C      0.896354230000     0.356229700000     0.163256700000    -0.049533   
C97      C      0.896354230000     0.356229700000     0.663256700000    -0.049533   
C97      C      0.896354230000     0.856229700000     0.163256700000    -0.049533   
C97      C      0.896354230000     0.856229700000     0.663256700000    -0.049533   
C98      C      0.339311870000     0.279761100000     0.203642950000    -0.037089   
C98      C      0.339311870000     0.279761100000     0.703642950000    -0.037089   
C98      C      0.339311870000     0.779761100000     0.203642950000    -0.037089   
C98      C      0.339311870000     0.779761100000     0.703642950000    -0.037089   
C98      C      0.839311870000     0.279761100000     0.203642950000    -0.037089   
C98      C      0.839311870000     0.279761100000     0.703642950000    -0.037089   
C98      C      0.839311870000     0.779761100000     0.203642950000    -0.037089   
C98      C      0.839311870000     0.779761100000     0.703642950000    -0.037089   
C99      C      0.216331570000     0.310758350000     0.068385050000     0.040494   
C99      C      0.216331570000     0.310758350000     0.568385050000     0.040494   
C99      C      0.216331570000     0.810758350000     0.068385050000     0.040494   
C99      C      0.216331570000     0.810758350000     0.568385050000     0.040494   
C99      C      0.716331570000     0.310758350000     0.068385050000     0.040494   
C99      C      0.716331570000     0.310758350000     0.568385050000     0.040494   
C99      C      0.716331570000     0.810758350000     0.068385050000     0.040494   
C99      C      0.716331570000     0.810758350000     0.568385050000     0.040494   
C100     C      0.297205865000     0.271701100000     0.158071475000    -0.075269   
C100     C      0.297205865000     0.271701100000     0.658071475000    -0.075269   
C100     C      0.297205865000     0.771701100000     0.158071475000    -0.075269   
C100     C      0.297205865000     0.771701100000     0.658071475000    -0.075269   
C100     C      0.797205865000     0.271701100000     0.158071475000    -0.075269   
C100     C      0.797205865000     0.271701100000     0.658071475000    -0.075269   
C100     C      0.797205865000     0.771701100000     0.158071475000    -0.075269   
C100     C      0.797205865000     0.771701100000     0.658071475000    -0.075269   
C101     C      0.304722665000     0.284961550000     0.101409150000     0.039584   
C101     C      0.304722665000     0.284961550000     0.601409150000     0.039584   
C101     C      0.304722665000     0.784961550000     0.101409150000     0.039584   
C101     C      0.304722665000     0.784961550000     0.601409150000     0.039584   
C101     C      0.804722665000     0.284961550000     0.101409150000     0.039584   
C101     C      0.804722665000     0.284961550000     0.601409150000     0.039584   
C101     C      0.804722665000     0.784961550000     0.101409150000     0.039584   
C101     C      0.804722665000     0.784961550000     0.601409150000     0.039584   
C102     C      0.375870525000     0.053877880000     0.202798115000    -0.057258   
C102     C      0.375870525000     0.053877880000     0.702798115000    -0.057258   
C102     C      0.375870525000     0.553877880000     0.202798115000    -0.057258   
C102     C      0.375870525000     0.553877880000     0.702798115000    -0.057258   
C102     C      0.875870525000     0.053877880000     0.202798115000    -0.057258   
C102     C      0.875870525000     0.053877880000     0.702798115000    -0.057258   
C102     C      0.875870525000     0.553877880000     0.202798115000    -0.057258   
C102     C      0.875870525000     0.553877880000     0.702798115000    -0.057258   
C103     C      0.377778900000     0.134782360000     0.339456080000    -0.010509   
C103     C      0.377778900000     0.134782360000     0.839456080000    -0.010509   
C103     C      0.377778900000     0.634782360000     0.339456080000    -0.010509   
C103     C      0.377778900000     0.634782360000     0.839456080000    -0.010509   
C103     C      0.877778900000     0.134782360000     0.339456080000    -0.010509   
C103     C      0.877778900000     0.134782360000     0.839456080000    -0.010509   
C103     C      0.877778900000     0.634782360000     0.339456080000    -0.010509   
C103     C      0.877778900000     0.634782360000     0.839456080000    -0.010509   
C104     C      0.437582650000     0.154523120000     0.320083400000    -0.014873   
C104     C      0.437582650000     0.154523120000     0.820083400000    -0.014873   
C104     C      0.437582650000     0.654523120000     0.320083400000    -0.014873   
C104     C      0.437582650000     0.654523120000     0.820083400000    -0.014873   
C104     C      0.937582650000     0.154523120000     0.320083400000    -0.014873   
C104     C      0.937582650000     0.154523120000     0.820083400000    -0.014873   
C104     C      0.937582650000     0.654523120000     0.320083400000    -0.014873   
C104     C      0.937582650000     0.654523120000     0.820083400000    -0.014873   
C105     C      0.444433930000     0.174934240000     0.347549380000     0.188418   
C105     C      0.444433930000     0.174934240000     0.847549380000     0.188418   
C105     C      0.444433930000     0.674934240000     0.347549380000     0.188418   
C105     C      0.444433930000     0.674934240000     0.847549380000     0.188418   
C105     C      0.944433930000     0.174934240000     0.347549380000     0.188418   
C105     C      0.944433930000     0.174934240000     0.847549380000     0.188418   
C105     C      0.944433930000     0.674934240000     0.347549380000     0.188418   
C105     C      0.944433930000     0.674934240000     0.847549380000     0.188418   
C106     C      0.417576075000     0.174313025000     0.371506600000     0.180851   
C106     C      0.417576075000     0.174313025000     0.871506600000     0.180851   
C106     C      0.417576075000     0.674313025000     0.371506600000     0.180851   
C106     C      0.417576075000     0.674313025000     0.871506600000     0.180851   
C106     C      0.917576075000     0.174313025000     0.371506600000     0.180851   
C106     C      0.917576075000     0.174313025000     0.871506600000     0.180851   
C106     C      0.917576075000     0.674313025000     0.371506600000     0.180851   
C106     C      0.917576075000     0.674313025000     0.871506600000     0.180851   
C107     C      0.384094600000     0.153891220000     0.367571250000    -0.060596   
C107     C      0.384094600000     0.153891220000     0.867571250000    -0.060596   
C107     C      0.384094600000     0.653891220000     0.367571250000    -0.060596   
C107     C      0.384094600000     0.653891220000     0.867571250000    -0.060596   
C107     C      0.884094600000     0.153891220000     0.367571250000    -0.060596   
C107     C      0.884094600000     0.153891220000     0.867571250000    -0.060596   
C107     C      0.884094600000     0.653891220000     0.367571250000    -0.060596   
C107     C      0.884094600000     0.653891220000     0.867571250000    -0.060596   
C108     C      0.477626500000     0.195689125000     0.351664125000     0.003978   
C108     C      0.477626500000     0.195689125000     0.851664125000     0.003978   
C108     C      0.477626500000     0.695689125000     0.351664125000     0.003978   
C108     C      0.477626500000     0.695689125000     0.851664125000     0.003978   
C108     C      0.977626500000     0.195689125000     0.351664125000     0.003978   
C108     C      0.977626500000     0.195689125000     0.851664125000     0.003978   
C108     C      0.977626500000     0.695689125000     0.351664125000     0.003978   
C108     C      0.977626500000     0.695689125000     0.851664125000     0.003978   
C109     C      0.484160050000     0.215270815000     0.379229550000    -0.063527   
C109     C      0.484160050000     0.215270815000     0.879229550000    -0.063527   
C109     C      0.484160050000     0.715270815000     0.379229550000    -0.063527   
C109     C      0.484160050000     0.715270815000     0.879229550000    -0.063527   
C109     C      0.984160050000     0.215270815000     0.379229550000    -0.063527   
C109     C      0.984160050000     0.215270815000     0.879229550000    -0.063527   
C109     C      0.984160050000     0.715270815000     0.379229550000    -0.063527   
C109     C      0.984160050000     0.715270815000     0.879229550000    -0.063527   
C110     C      0.457685650000     0.214601900000     0.403413200000     0.023154   
C110     C      0.457685650000     0.214601900000     0.903413200000     0.023154   
C110     C      0.457685650000     0.714601900000     0.403413200000     0.023154   
C110     C      0.457685650000     0.714601900000     0.903413200000     0.023154   
C110     C      0.957685650000     0.214601900000     0.403413200000     0.023154   
C110     C      0.957685650000     0.214601900000     0.903413200000     0.023154   
C110     C      0.957685650000     0.714601900000     0.403413200000     0.023154   
C110     C      0.957685650000     0.714601900000     0.903413200000     0.023154   
C111     C      0.424208800000     0.194174300000     0.399472650000    -0.075082   
C111     C      0.424208800000     0.194174300000     0.899472650000    -0.075082   
C111     C      0.424208800000     0.694174300000     0.399472650000    -0.075082   
C111     C      0.424208800000     0.694174300000     0.899472650000    -0.075082   
C111     C      0.924208800000     0.194174300000     0.399472650000    -0.075082   
C111     C      0.924208800000     0.194174300000     0.899472650000    -0.075082   
C111     C      0.924208800000     0.694174300000     0.399472650000    -0.075082   
C111     C      0.924208800000     0.694174300000     0.899472650000    -0.075082   
C112     C      0.397337050000     0.193567620000     0.423434150000     0.113251   
C112     C      0.397337050000     0.193567620000     0.923434150000     0.113251   
C112     C      0.397337050000     0.693567620000     0.423434150000     0.113251   
C112     C      0.397337050000     0.693567620000     0.923434150000     0.113251   
C112     C      0.897337050000     0.193567620000     0.423434150000     0.113251   
C112     C      0.897337050000     0.193567620000     0.923434150000     0.113251   
C112     C      0.897337050000     0.693567620000     0.423434150000     0.113251   
C112     C      0.897337050000     0.693567620000     0.923434150000     0.113251   
C113     C      0.364148230000     0.172805535000     0.419314950000    -0.087846   
C113     C      0.364148230000     0.172805535000     0.919314950000    -0.087846   
C113     C      0.364148230000     0.672805535000     0.419314950000    -0.087846   
C113     C      0.364148230000     0.672805535000     0.919314950000    -0.087846   
C113     C      0.864148230000     0.172805535000     0.419314950000    -0.087846   
C113     C      0.864148230000     0.172805535000     0.919314950000    -0.087846   
C113     C      0.864148230000     0.672805535000     0.419314950000    -0.087846   
C113     C      0.864148230000     0.672805535000     0.919314950000    -0.087846   
C114     C      0.357613830000     0.153222515000     0.391750365000     0.029934   
C114     C      0.357613830000     0.153222515000     0.891750365000     0.029934   
C114     C      0.357613830000     0.653222515000     0.391750365000     0.029934   
C114     C      0.357613830000     0.653222515000     0.891750365000     0.029934   
C114     C      0.857613830000     0.153222515000     0.391750365000     0.029934   
C114     C      0.857613830000     0.153222515000     0.891750365000     0.029934   
C114     C      0.857613830000     0.653222515000     0.391750365000     0.029934   
C114     C      0.857613830000     0.653222515000     0.891750365000     0.029934   
C115     C      0.464008800000     0.233699440000     0.431531130000    -0.078917   
C115     C      0.464008800000     0.233699440000     0.931531130000    -0.078917   
C115     C      0.464008800000     0.733699440000     0.431531130000    -0.078917   
C115     C      0.464008800000     0.733699440000     0.931531130000    -0.078917   
C115     C      0.964008800000     0.233699440000     0.431531130000    -0.078917   
C115     C      0.964008800000     0.233699440000     0.931531130000    -0.078917   
C115     C      0.964008800000     0.733699440000     0.431531130000    -0.078917   
C115     C      0.964008800000     0.733699440000     0.931531130000    -0.078917   
C116     C      0.404185700000     0.213971750000     0.450891100000     0.028257   
C116     C      0.404185700000     0.213971750000     0.950891100000     0.028257   
C116     C      0.404185700000     0.713971750000     0.450891100000     0.028257   
C116     C      0.404185700000     0.713971750000     0.950891100000     0.028257   
C116     C      0.904185700000     0.213971750000     0.450891100000     0.028257   
C116     C      0.904185700000     0.213971750000     0.950891100000     0.028257   
C116     C      0.904185700000     0.713971750000     0.450891100000     0.028257   
C116     C      0.904185700000     0.713971750000     0.950891100000     0.028257   
C117     C      0.449592100000     0.294285100000     0.483715650000    -0.089546   
C117     C      0.449592100000     0.294285100000     0.983715650000    -0.089546   
C117     C      0.449592100000     0.794285100000     0.483715650000    -0.089546   
C117     C      0.449592100000     0.794285100000     0.983715650000    -0.089546   
C117     C      0.949592100000     0.294285100000     0.483715650000    -0.089546   
C117     C      0.949592100000     0.294285100000     0.983715650000    -0.089546   
C117     C      0.949592100000     0.794285100000     0.483715650000    -0.089546   
C117     C      0.949592100000     0.794285100000     0.983715650000    -0.089546   
C118     C      0.456966400000     0.313835680000     0.011207400000     0.127585   
C118     C      0.456966400000     0.313835680000     0.511207400000     0.127585   
C118     C      0.456966400000     0.813835680000     0.011207400000     0.127585   
C118     C      0.456966400000     0.813835680000     0.511207400000     0.127585   
C118     C      0.956966400000     0.313835680000     0.011207400000     0.127585   
C118     C      0.956966400000     0.313835680000     0.511207400000     0.127585   
C118     C      0.956966400000     0.813835680000     0.011207400000     0.127585   
C118     C      0.956966400000     0.813835680000     0.511207400000     0.127585   
C119     C      0.457886800000     0.293858650000     0.039045990000     0.265113   
C119     C      0.457886800000     0.293858650000     0.539045990000     0.265113   
C119     C      0.457886800000     0.793858650000     0.039045990000     0.265113   
C119     C      0.457886800000     0.793858650000     0.539045990000     0.265113   
C119     C      0.957886800000     0.293858650000     0.039045990000     0.265113   
C119     C      0.957886800000     0.293858650000     0.539045990000     0.265113   
C119     C      0.957886800000     0.793858650000     0.039045990000     0.265113   
C119     C      0.957886800000     0.793858650000     0.539045990000     0.265113   
C120     C      0.451597950000     0.253759600000     0.038705585000    -0.546709   
C120     C      0.451597950000     0.253759600000     0.538705585000    -0.546709   
C120     C      0.451597950000     0.753759600000     0.038705585000    -0.546709   
C120     C      0.451597950000     0.753759600000     0.538705585000    -0.546709   
C120     C      0.951597950000     0.253759600000     0.038705585000    -0.546709   
C120     C      0.951597950000     0.253759600000     0.538705585000    -0.546709   
C120     C      0.951597950000     0.753759600000     0.038705585000    -0.546709   
C120     C      0.951597950000     0.753759600000     0.538705585000    -0.546709   
C121     C      0.445247050000     0.233918400000     0.011134205000     0.10952    
C121     C      0.445247050000     0.233918400000     0.511134205000     0.10952    
C121     C      0.445247050000     0.733918400000     0.011134205000     0.10952    
C121     C      0.445247050000     0.733918400000     0.511134205000     0.10952    
C121     C      0.945247050000     0.233918400000     0.011134205000     0.10952    
C121     C      0.945247050000     0.233918400000     0.511134205000     0.10952    
C121     C      0.945247050000     0.733918400000     0.011134205000     0.10952    
C121     C      0.945247050000     0.733918400000     0.511134205000     0.10952    
C122     C      0.444001550000     0.253963530000     0.483280600000     0.244547   
C122     C      0.444001550000     0.253963530000     0.983280600000     0.244547   
C122     C      0.444001550000     0.753963530000     0.483280600000     0.244547   
C122     C      0.444001550000     0.753963530000     0.983280600000     0.244547   
C122     C      0.944001550000     0.253963530000     0.483280600000     0.244547   
C122     C      0.944001550000     0.253963530000     0.983280600000     0.244547   
C122     C      0.944001550000     0.753963530000     0.483280600000     0.244547   
C122     C      0.944001550000     0.753963530000     0.983280600000     0.244547   
C123     C      0.392189385000     0.074187525000     0.287277450000     0.032968   
C123     C      0.392189385000     0.074187525000     0.787277450000     0.032968   
C123     C      0.392189385000     0.574187525000     0.287277450000     0.032968   
C123     C      0.392189385000     0.574187525000     0.787277450000     0.032968   
C123     C      0.892189385000     0.074187525000     0.287277450000     0.032968   
C123     C      0.892189385000     0.074187525000     0.787277450000     0.032968   
C123     C      0.892189385000     0.574187525000     0.287277450000     0.032968   
C123     C      0.892189385000     0.574187525000     0.787277450000     0.032968   
C124     C      0.384823500000     0.054629940000     0.259799125000     0.22314    
C124     C      0.384823500000     0.054629940000     0.759799125000     0.22314    
C124     C      0.384823500000     0.554629940000     0.259799125000     0.22314    
C124     C      0.384823500000     0.554629940000     0.759799125000     0.22314    
C124     C      0.884823500000     0.054629940000     0.259799125000     0.22314    
C124     C      0.884823500000     0.054629940000     0.759799125000     0.22314    
C124     C      0.884823500000     0.554629940000     0.259799125000     0.22314    
C124     C      0.884823500000     0.554629940000     0.759799125000     0.22314    
C125     C      0.383914300000     0.074585510000     0.231947275000    -2.80865    
C125     C      0.383914300000     0.074585510000     0.731947275000    -2.80865    
C125     C      0.383914300000     0.574585510000     0.231947275000    -2.80865    
C125     C      0.383914300000     0.574585510000     0.731947275000    -2.80865    
C125     C      0.883914300000     0.074585510000     0.231947275000    -2.80865    
C125     C      0.883914300000     0.074585510000     0.731947275000    -2.80865    
C125     C      0.883914300000     0.574585510000     0.231947275000    -2.80865    
C125     C      0.883914300000     0.574585510000     0.731947275000    -2.80865    
C126     C      0.390210480000     0.114682635000     0.232279880000     6.57038    
C126     C      0.390210480000     0.114682635000     0.732279880000     6.57038    
C126     C      0.390210480000     0.614682635000     0.232279880000     6.57038    
C126     C      0.390210480000     0.614682635000     0.732279880000     6.57038    
C126     C      0.890210480000     0.114682635000     0.232279880000     6.57038    
C126     C      0.890210480000     0.114682635000     0.732279880000     6.57038    
C126     C      0.890210480000     0.614682635000     0.232279880000     6.57038    
C126     C      0.890210480000     0.614682635000     0.732279880000     6.57038    
C127     C      0.396555650000     0.134537800000     0.259846865000    -3.0323     
C127     C      0.396555650000     0.134537800000     0.759846865000    -3.0323     
C127     C      0.396555650000     0.634537800000     0.259846865000    -3.0323     
C127     C      0.396555650000     0.634537800000     0.759846865000    -3.0323     
C127     C      0.896555650000     0.134537800000     0.259846865000    -3.0323     
C127     C      0.896555650000     0.134537800000     0.759846865000    -3.0323     
C127     C      0.896555650000     0.634537800000     0.259846865000    -3.0323     
C127     C      0.896555650000     0.634537800000     0.759846865000    -3.0323     
C128     C      0.397787200000     0.114507220000     0.287704700000     0.847121   
C128     C      0.397787200000     0.114507220000     0.787704700000     0.847121   
C128     C      0.397787200000     0.614507220000     0.287704700000     0.847121   
C128     C      0.397787200000     0.614507220000     0.787704700000     0.847121   
C128     C      0.897787200000     0.114507220000     0.287704700000     0.847121   
C128     C      0.897787200000     0.114507220000     0.787704700000     0.847121   
C128     C      0.897787200000     0.614507220000     0.287704700000     0.847121   
C128     C      0.897787200000     0.614507220000     0.787704700000     0.847121   
C129     C      0.465924400000     0.314557015000     0.068201065000    -0.185746   
C129     C      0.465924400000     0.314557015000     0.568201065000    -0.185746   
C129     C      0.465924400000     0.814557015000     0.068201065000    -0.185746   
C129     C      0.465924400000     0.814557015000     0.568201065000    -0.185746   
C129     C      0.965924400000     0.314557015000     0.068201065000    -0.185746   
C129     C      0.965924400000     0.314557015000     0.568201065000    -0.185746   
C129     C      0.965924400000     0.814557015000     0.068201065000    -0.185746   
C129     C      0.965924400000     0.814557015000     0.568201065000    -0.185746   
C130     C      0.412941725000     0.180325760000     0.132275075000    -0.079603   
C130     C      0.412941725000     0.180325760000     0.632275075000    -0.079603   
C130     C      0.412941725000     0.680325760000     0.132275075000    -0.079603   
C130     C      0.412941725000     0.680325760000     0.632275075000    -0.079603   
C130     C      0.912941725000     0.180325760000     0.132275075000    -0.079603   
C130     C      0.912941725000     0.180325760000     0.632275075000    -0.079603   
C130     C      0.912941725000     0.680325760000     0.132275075000    -0.079603   
C130     C      0.912941725000     0.680325760000     0.632275075000    -0.079603   
C131     C      0.078756185000     0.029459720000     0.119208200000    -0.350424   
C131     C      0.078756185000     0.029459720000     0.619208200000    -0.350424   
C131     C      0.078756185000     0.529459720000     0.119208200000    -0.350424   
C131     C      0.078756185000     0.529459720000     0.619208200000    -0.350424   
C131     C      0.578756185000     0.029459720000     0.119208200000    -0.350424   
C131     C      0.578756185000     0.029459720000     0.619208200000    -0.350424   
C131     C      0.578756185000     0.529459720000     0.119208200000    -0.350424   
C131     C      0.578756185000     0.529459720000     0.619208200000    -0.350424   
C132     C      0.013549035000     0.087802520000     0.118192365000    -0.001543   
C132     C      0.013549035000     0.087802520000     0.618192365000    -0.001543   
C132     C      0.013549035000     0.587802520000     0.118192365000    -0.001543   
C132     C      0.013549035000     0.587802520000     0.618192365000    -0.001543   
C132     C      0.513549035000     0.087802520000     0.118192365000    -0.001543   
C132     C      0.513549035000     0.087802520000     0.618192365000    -0.001543   
C132     C      0.513549035000     0.587802520000     0.118192365000    -0.001543   
C132     C      0.513549035000     0.587802520000     0.618192365000    -0.001543   
C133     C      0.154397830000     0.005943615000     0.118468290000     1.13454    
C133     C      0.154397830000     0.005943615000     0.618468290000     1.13454    
C133     C      0.154397830000     0.505943615000     0.118468290000     1.13454    
C133     C      0.154397830000     0.505943615000     0.618468290000     1.13454    
C133     C      0.654397830000     0.005943615000     0.118468290000     1.13454    
C133     C      0.654397830000     0.005943615000     0.618468290000     1.13454    
C133     C      0.654397830000     0.505943615000     0.118468290000     1.13454    
C133     C      0.654397830000     0.505943615000     0.618468290000     1.13454    
C134     C      0.187006350000     0.474651900000     0.121618590000    -1.37019    
C134     C      0.187006350000     0.474651900000     0.621618590000    -1.37019    
C134     C      0.187006350000     0.974651900000     0.121618590000    -1.37019    
C134     C      0.187006350000     0.974651900000     0.621618590000    -1.37019    
C134     C      0.687006350000     0.474651900000     0.121618590000    -1.37019    
C134     C      0.687006350000     0.474651900000     0.621618590000    -1.37019    
C134     C      0.687006350000     0.974651900000     0.121618590000    -1.37019    
C134     C      0.687006350000     0.974651900000     0.621618590000    -1.37019    
C135     C      0.180633560000     0.436271600000     0.129688785000     2.97804    
C135     C      0.180633560000     0.436271600000     0.629688785000     2.97804    
C135     C      0.180633560000     0.936271600000     0.129688785000     2.97804    
C135     C      0.180633560000     0.936271600000     0.629688785000     2.97804    
C135     C      0.680633560000     0.436271600000     0.129688785000     2.97804    
C135     C      0.680633560000     0.436271600000     0.629688785000     2.97804    
C135     C      0.680633560000     0.936271600000     0.129688785000     2.97804    
C135     C      0.680633560000     0.936271600000     0.629688785000     2.97804    
C136     C      0.140676735000     0.428319500000     0.132437885000     0.042916   
C136     C      0.140676735000     0.428319500000     0.632437885000     0.042916   
C136     C      0.140676735000     0.928319500000     0.132437885000     0.042916   
C136     C      0.140676735000     0.928319500000     0.632437885000     0.042916   
C136     C      0.640676735000     0.428319500000     0.132437885000     0.042916   
C136     C      0.640676735000     0.428319500000     0.632437885000     0.042916   
C136     C      0.640676735000     0.928319500000     0.132437885000     0.042916   
C136     C      0.640676735000     0.928319500000     0.632437885000     0.042916   
C137     C      0.108295300000     0.459291250000     0.128888190000    -0.053509   
C137     C      0.108295300000     0.459291250000     0.628888190000    -0.053509   
C137     C      0.108295300000     0.959291250000     0.128888190000    -0.053509   
C137     C      0.108295300000     0.959291250000     0.628888190000    -0.053509   
C137     C      0.608295300000     0.459291250000     0.128888190000    -0.053509   
C137     C      0.608295300000     0.459291250000     0.628888190000    -0.053509   
C137     C      0.608295300000     0.959291250000     0.128888190000    -0.053509   
C137     C      0.608295300000     0.959291250000     0.628888190000    -0.053509   
C138     C      0.114471630000     0.497917115000     0.121505020000    -0.145888   
C138     C      0.114471630000     0.497917115000     0.621505020000    -0.145888   
C138     C      0.114471630000     0.997917115000     0.121505020000    -0.145888   
C138     C      0.114471630000     0.997917115000     0.621505020000    -0.145888   
C138     C      0.614471630000     0.497917115000     0.121505020000    -0.145888   
C138     C      0.614471630000     0.497917115000     0.621505020000    -0.145888   
C138     C      0.614471630000     0.997917115000     0.121505020000    -0.145888   
C138     C      0.614471630000     0.997917115000     0.621505020000    -0.145888   
C139     C      0.377591900000     0.211748950000     0.135986180000    -0.068731   
C139     C      0.377591900000     0.211748950000     0.635986180000    -0.068731   
C139     C      0.377591900000     0.711748950000     0.135986180000    -0.068731   
C139     C      0.377591900000     0.711748950000     0.635986180000    -0.068731   
C139     C      0.877591900000     0.211748950000     0.135986180000    -0.068731   
C139     C      0.877591900000     0.211748950000     0.635986180000    -0.068731   
C139     C      0.877591900000     0.711748950000     0.135986180000    -0.068731   
C139     C      0.877591900000     0.711748950000     0.635986180000    -0.068731   
C140     C      0.215653970000     0.404476730000     0.134001135000    -0.024768   
C140     C      0.215653970000     0.404476730000     0.634001135000    -0.024768   
C140     C      0.215653970000     0.904476730000     0.134001135000    -0.024768   
C140     C      0.215653970000     0.904476730000     0.634001135000    -0.024768   
C140     C      0.715653970000     0.404476730000     0.134001135000    -0.024768   
C140     C      0.715653970000     0.404476730000     0.634001135000    -0.024768   
C140     C      0.715653970000     0.904476730000     0.134001135000    -0.024768   
C140     C      0.715653970000     0.904476730000     0.634001135000    -0.024768   
C141     C      0.452532230000     0.189537525000     0.133303240000    -0.159547   
C141     C      0.452532230000     0.189537525000     0.633303240000    -0.159547   
C141     C      0.452532230000     0.689537525000     0.133303240000    -0.159547   
C141     C      0.452532230000     0.689537525000     0.633303240000    -0.159547   
C141     C      0.952532230000     0.189537525000     0.133303240000    -0.159547   
C141     C      0.952532230000     0.189537525000     0.633303240000    -0.159547   
C141     C      0.952532230000     0.689537525000     0.133303240000    -0.159547   
C141     C      0.952532230000     0.689537525000     0.633303240000    -0.159547   
C142     C      0.485841500000     0.159963830000     0.128152070000     0.055707   
C142     C      0.485841500000     0.159963830000     0.628152070000     0.055707   
C142     C      0.485841500000     0.659963830000     0.128152070000     0.055707   
C142     C      0.485841500000     0.659963830000     0.628152070000     0.055707   
C142     C      0.985841500000     0.159963830000     0.128152070000     0.055707   
C142     C      0.985841500000     0.159963830000     0.628152070000     0.055707   
C142     C      0.985841500000     0.659963830000     0.128152070000     0.055707   
C142     C      0.985841500000     0.659963830000     0.628152070000     0.055707   
C143     C      0.479307115000     0.120482170000     0.120906145000    -0.082288   
C143     C      0.479307115000     0.120482170000     0.620906145000    -0.082288   
C143     C      0.479307115000     0.620482170000     0.120906145000    -0.082288   
C143     C      0.479307115000     0.620482170000     0.620906145000    -0.082288   
C143     C      0.979307115000     0.120482170000     0.120906145000    -0.082288   
C143     C      0.979307115000     0.120482170000     0.620906145000    -0.082288   
C143     C      0.979307115000     0.620482170000     0.120906145000    -0.082288   
C143     C      0.979307115000     0.620482170000     0.620906145000    -0.082288   
C144     C      0.439305750000     0.111629465000     0.118699800000    -0.133213   
C144     C      0.439305750000     0.111629465000     0.618699800000    -0.133213   
C144     C      0.439305750000     0.611629465000     0.118699800000    -0.133213   
C144     C      0.439305750000     0.611629465000     0.618699800000    -0.133213   
C144     C      0.939305750000     0.111629465000     0.118699800000    -0.133213   
C144     C      0.939305750000     0.111629465000     0.618699800000    -0.133213   
C144     C      0.939305750000     0.611629465000     0.118699800000    -0.133213   
C144     C      0.939305750000     0.611629465000     0.618699800000    -0.133213   
C145     C      0.406836180000     0.141143380000     0.125273800000     0.641757   
C145     C      0.406836180000     0.141143380000     0.625273800000     0.641757   
C145     C      0.406836180000     0.641143380000     0.125273800000     0.641757   
C145     C      0.406836180000     0.641143380000     0.625273800000     0.641757   
C145     C      0.906836180000     0.141143380000     0.125273800000     0.641757   
C145     C      0.906836180000     0.141143380000     0.625273800000     0.641757   
C145     C      0.906836180000     0.641143380000     0.125273800000     0.641757   
C145     C      0.906836180000     0.641143380000     0.625273800000     0.641757   
C146     C      0.047725305000     0.159074875000     0.153267400000     0.127846   
C146     C      0.047725305000     0.159074875000     0.653267400000     0.127846   
C146     C      0.047725305000     0.659074875000     0.153267400000     0.127846   
C146     C      0.047725305000     0.659074875000     0.653267400000     0.127846   
C146     C      0.547725305000     0.159074875000     0.153267400000     0.127846   
C146     C      0.547725305000     0.159074875000     0.653267400000     0.127846   
C146     C      0.547725305000     0.659074875000     0.153267400000     0.127846   
C146     C      0.547725305000     0.659074875000     0.653267400000     0.127846   
C147     C      0.040825030000     0.190450875000     0.178641960000     0.078011   
C147     C      0.040825030000     0.190450875000     0.678641960000     0.078011   
C147     C      0.040825030000     0.690450875000     0.178641960000     0.078011   
C147     C      0.040825030000     0.690450875000     0.678641960000     0.078011   
C147     C      0.540825030000     0.190450875000     0.178641960000     0.078011   
C147     C      0.540825030000     0.190450875000     0.678641960000     0.078011   
C147     C      0.540825030000     0.690450875000     0.178641960000     0.078011   
C147     C      0.540825030000     0.690450875000     0.678641960000     0.078011   
C148     C      0.071785375000     0.181264030000     0.204786800000     0.178922   
C148     C      0.071785375000     0.181264030000     0.704786800000     0.178922   
C148     C      0.071785375000     0.681264030000     0.204786800000     0.178922   
C148     C      0.071785375000     0.681264030000     0.704786800000     0.178922   
C148     C      0.571785375000     0.181264030000     0.204786800000     0.178922   
C148     C      0.571785375000     0.181264030000     0.704786800000     0.178922   
C148     C      0.571785375000     0.681264030000     0.204786800000     0.178922   
C148     C      0.571785375000     0.681264030000     0.704786800000     0.178922   
C149     C      0.434636900000     0.066533030000     0.079637600000    -0.039316   
C149     C      0.434636900000     0.066533030000     0.579637600000    -0.039316   
C149     C      0.434636900000     0.566533030000     0.079637600000    -0.039316   
C149     C      0.434636900000     0.566533030000     0.579637600000    -0.039316   
C149     C      0.934636900000     0.066533030000     0.079637600000    -0.039316   
C149     C      0.934636900000     0.066533030000     0.579637600000    -0.039316   
C149     C      0.934636900000     0.566533030000     0.079637600000    -0.039316   
C149     C      0.934636900000     0.566533030000     0.579637600000    -0.039316   
C150     C      0.394375025000     0.081105120000     0.062796000000     0.01477    
C150     C      0.394375025000     0.081105120000     0.562796000000     0.01477    
C150     C      0.394375025000     0.581105120000     0.062796000000     0.01477    
C150     C      0.394375025000     0.581105120000     0.562796000000     0.01477    
C150     C      0.894375025000     0.081105120000     0.062796000000     0.01477    
C150     C      0.894375025000     0.081105120000     0.562796000000     0.01477    
C150     C      0.894375025000     0.581105120000     0.062796000000     0.01477    
C150     C      0.894375025000     0.581105120000     0.562796000000     0.01477    
C151     C      0.396495100000     0.070489050000     0.028952630000    -0.015042   
C151     C      0.396495100000     0.070489050000     0.528952630000    -0.015042   
C151     C      0.396495100000     0.570489050000     0.028952630000    -0.015042   
C151     C      0.396495100000     0.570489050000     0.528952630000    -0.015042   
C151     C      0.896495100000     0.070489050000     0.028952630000    -0.015042   
C151     C      0.896495100000     0.070489050000     0.528952630000    -0.015042   
C151     C      0.896495100000     0.570489050000     0.028952630000    -0.015042   
C151     C      0.896495100000     0.570489050000     0.528952630000    -0.015042   
C152     C      0.181589990000     0.061126120000     0.135670380000    -0.017731   
C152     C      0.181589990000     0.061126120000     0.635670380000    -0.017731   
C152     C      0.181589990000     0.561126120000     0.135670380000    -0.017731   
C152     C      0.181589990000     0.561126120000     0.635670380000    -0.017731   
C152     C      0.681589990000     0.061126120000     0.135670380000    -0.017731   
C152     C      0.681589990000     0.061126120000     0.635670380000    -0.017731   
C152     C      0.681589990000     0.561126120000     0.135670380000    -0.017731   
C152     C      0.681589990000     0.561126120000     0.635670380000    -0.017731   
C153     C      0.153270335000     0.074080720000     0.162082165000    -0.006974   
C153     C      0.153270335000     0.074080720000     0.662082165000    -0.006974   
C153     C      0.153270335000     0.574080720000     0.162082165000    -0.006974   
C153     C      0.153270335000     0.574080720000     0.662082165000    -0.006974   
C153     C      0.653270335000     0.074080720000     0.162082165000    -0.006974   
C153     C      0.653270335000     0.074080720000     0.662082165000    -0.006974   
C153     C      0.653270335000     0.574080720000     0.162082165000    -0.006974   
C153     C      0.653270335000     0.574080720000     0.662082165000    -0.006974   
C154     C      0.173777250000     0.097336255000     0.186445890000    -0.059601   
C154     C      0.173777250000     0.097336255000     0.686445890000    -0.059601   
C154     C      0.173777250000     0.597336255000     0.186445890000    -0.059601   
C154     C      0.173777250000     0.597336255000     0.686445890000    -0.059601   
C154     C      0.673777250000     0.097336255000     0.186445890000    -0.059601   
C154     C      0.673777250000     0.097336255000     0.686445890000    -0.059601   
C154     C      0.673777250000     0.597336255000     0.186445890000    -0.059601   
C154     C      0.673777250000     0.597336255000     0.686445890000    -0.059601   
C155     C      0.116217010000     0.371844300000     0.117072695000     0.042215   
C155     C      0.116217010000     0.371844300000     0.617072695000     0.042215   
C155     C      0.116217010000     0.871844300000     0.117072695000     0.042215   
C155     C      0.116217010000     0.871844300000     0.617072695000     0.042215   
C155     C      0.616217010000     0.371844300000     0.117072695000     0.042215   
C155     C      0.616217010000     0.371844300000     0.617072695000     0.042215   
C155     C      0.616217010000     0.871844300000     0.117072695000     0.042215   
C155     C      0.616217010000     0.871844300000     0.617072695000     0.042215   
C156     C      0.266402850000     0.478523225000     0.083033025000    -0.075721   
C156     C      0.266402850000     0.478523225000     0.583033025000    -0.075721   
C156     C      0.266402850000     0.978523225000     0.083033025000    -0.075721   
C156     C      0.266402850000     0.978523225000     0.583033025000    -0.075721   
C156     C      0.766402850000     0.478523225000     0.083033025000    -0.075721   
C156     C      0.766402850000     0.478523225000     0.583033025000    -0.075721   
C156     C      0.766402850000     0.978523225000     0.083033025000    -0.075721   
C156     C      0.766402850000     0.978523225000     0.583033025000    -0.075721   
C157     C      0.207683610000     0.479119800000     0.439199800000     0.024297   
C157     C      0.207683610000     0.479119800000     0.939199800000     0.024297   
C157     C      0.207683610000     0.979119800000     0.439199800000     0.024297   
C157     C      0.207683610000     0.979119800000     0.939199800000     0.024297   
C157     C      0.707683610000     0.479119800000     0.439199800000     0.024297   
C157     C      0.707683610000     0.479119800000     0.939199800000     0.024297   
C157     C      0.707683610000     0.979119800000     0.439199800000     0.024297   
C157     C      0.707683610000     0.979119800000     0.939199800000     0.024297   
C158     C      0.193611950000     0.415083100000     0.453363850000    -0.023036   
C158     C      0.193611950000     0.415083100000     0.953363850000    -0.023036   
C158     C      0.193611950000     0.915083100000     0.453363850000    -0.023036   
C158     C      0.193611950000     0.915083100000     0.953363850000    -0.023036   
C158     C      0.693611950000     0.415083100000     0.453363850000    -0.023036   
C158     C      0.693611950000     0.415083100000     0.953363850000    -0.023036   
C158     C      0.693611950000     0.915083100000     0.453363850000    -0.023036   
C158     C      0.693611950000     0.915083100000     0.953363850000    -0.023036   
C159     C      0.178624900000     0.408213675000     0.423695830000     0.182068   
C159     C      0.178624900000     0.408213675000     0.923695830000     0.182068   
C159     C      0.178624900000     0.908213675000     0.423695830000     0.182068   
C159     C      0.178624900000     0.908213675000     0.923695830000     0.182068   
C159     C      0.678624900000     0.408213675000     0.423695830000     0.182068   
C159     C      0.678624900000     0.408213675000     0.923695830000     0.182068   
C159     C      0.678624900000     0.908213675000     0.423695830000     0.182068   
C159     C      0.678624900000     0.908213675000     0.923695830000     0.182068   
C160     C      0.179131750000     0.437355150000     0.401375620000     0.184837   
C160     C      0.179131750000     0.437355150000     0.901375620000     0.184837   
C160     C      0.179131750000     0.937355150000     0.401375620000     0.184837   
C160     C      0.179131750000     0.937355150000     0.901375620000     0.184837   
C160     C      0.679131750000     0.437355150000     0.401375620000     0.184837   
C160     C      0.679131750000     0.437355150000     0.901375620000     0.184837   
C160     C      0.679131750000     0.937355150000     0.401375620000     0.184837   
C160     C      0.679131750000     0.937355150000     0.901375620000     0.184837   
C161     C      0.193995415000     0.473017870000     0.409064150000    -0.09894    
C161     C      0.193995415000     0.473017870000     0.909064150000    -0.09894    
C161     C      0.193995415000     0.973017870000     0.409064150000    -0.09894    
C161     C      0.193995415000     0.973017870000     0.909064150000    -0.09894    
C161     C      0.693995415000     0.473017870000     0.409064150000    -0.09894    
C161     C      0.693995415000     0.473017870000     0.909064150000    -0.09894    
C161     C      0.693995415000     0.973017870000     0.409064150000    -0.09894    
C161     C      0.693995415000     0.973017870000     0.909064150000    -0.09894    
C162     C      0.163422270000     0.372812150000     0.415805800000     0.044956   
C162     C      0.163422270000     0.372812150000     0.915805800000     0.044956   
C162     C      0.163422270000     0.872812150000     0.415805800000     0.044956   
C162     C      0.163422270000     0.872812150000     0.915805800000     0.044956   
C162     C      0.663422270000     0.372812150000     0.415805800000     0.044956   
C162     C      0.663422270000     0.372812150000     0.915805800000     0.044956   
C162     C      0.663422270000     0.872812150000     0.415805800000     0.044956   
C162     C      0.663422270000     0.872812150000     0.915805800000     0.044956   
C163     C      0.149219100000     0.366378070000     0.386148065000    -0.116334   
C163     C      0.149219100000     0.366378070000     0.886148065000    -0.116334   
C163     C      0.149219100000     0.866378070000     0.386148065000    -0.116334   
C163     C      0.149219100000     0.866378070000     0.886148065000    -0.116334   
C163     C      0.649219100000     0.366378070000     0.386148065000    -0.116334   
C163     C      0.649219100000     0.366378070000     0.886148065000    -0.116334   
C163     C      0.649219100000     0.866378070000     0.386148065000    -0.116334   
C163     C      0.649219100000     0.866378070000     0.886148065000    -0.116334   
C164     C      0.149858475000     0.395165600000     0.363593150000     0.046767   
C164     C      0.149858475000     0.395165600000     0.863593150000     0.046767   
C164     C      0.149858475000     0.895165600000     0.363593150000     0.046767   
C164     C      0.149858475000     0.895165600000     0.863593150000     0.046767   
C164     C      0.649858475000     0.395165600000     0.363593150000     0.046767   
C164     C      0.649858475000     0.395165600000     0.863593150000     0.046767   
C164     C      0.649858475000     0.895165600000     0.363593150000     0.046767   
C164     C      0.649858475000     0.895165600000     0.863593150000     0.046767   
C165     C      0.164727700000     0.430823950000     0.371287300000    -0.108217   
C165     C      0.164727700000     0.430823950000     0.871287300000    -0.108217   
C165     C      0.164727700000     0.930823950000     0.371287300000    -0.108217   
C165     C      0.164727700000     0.930823950000     0.871287300000    -0.108217   
C165     C      0.664727700000     0.430823950000     0.371287300000    -0.108217   
C165     C      0.664727700000     0.430823950000     0.871287300000    -0.108217   
C165     C      0.664727700000     0.930823950000     0.371287300000    -0.108217   
C165     C      0.664727700000     0.930823950000     0.871287300000    -0.108217   
C166     C      0.165219050000     0.459977750000     0.348961850000     0.133961   
C166     C      0.165219050000     0.459977750000     0.848961850000     0.133961   
C166     C      0.165219050000     0.959977750000     0.348961850000     0.133961   
C166     C      0.165219050000     0.959977750000     0.848961850000     0.133961   
C166     C      0.665219050000     0.459977750000     0.348961850000     0.133961   
C166     C      0.665219050000     0.459977750000     0.848961850000     0.133961   
C166     C      0.665219050000     0.959977750000     0.348961850000     0.133961   
C166     C      0.665219050000     0.959977750000     0.848961850000     0.133961   
C167     C      0.180428600000     0.495376050000     0.356856900000    -0.051261   
C167     C      0.180428600000     0.495376050000     0.856856900000    -0.051261   
C167     C      0.180428600000     0.995376050000     0.356856900000    -0.051261   
C167     C      0.180428600000     0.995376050000     0.856856900000    -0.051261   
C167     C      0.680428600000     0.495376050000     0.356856900000    -0.051261   
C167     C      0.680428600000     0.495376050000     0.856856900000    -0.051261   
C167     C      0.680428600000     0.995376050000     0.356856900000    -0.051261   
C167     C      0.680428600000     0.995376050000     0.856856900000    -0.051261   
C168     C      0.194633080000     0.001811265000     0.386514000000    -0.036097   
C168     C      0.194633080000     0.001811265000     0.886514000000    -0.036097   
C168     C      0.194633080000     0.501811265000     0.386514000000    -0.036097   
C168     C      0.194633080000     0.501811265000     0.886514000000    -0.036097   
C168     C      0.694633080000     0.001811265000     0.386514000000    -0.036097   
C168     C      0.694633080000     0.001811265000     0.886514000000    -0.036097   
C168     C      0.694633080000     0.501811265000     0.386514000000    -0.036097   
C168     C      0.694633080000     0.501811265000     0.886514000000    -0.036097   
C169     C      0.136182800000     0.389057935000     0.333455770000     0.010657   
C169     C      0.136182800000     0.389057935000     0.833455770000     0.010657   
C169     C      0.136182800000     0.889057935000     0.333455770000     0.010657   
C169     C      0.136182800000     0.889057935000     0.833455770000     0.010657   
C169     C      0.636182800000     0.389057935000     0.333455770000     0.010657   
C169     C      0.636182800000     0.389057935000     0.833455770000     0.010657   
C169     C      0.636182800000     0.889057935000     0.333455770000     0.010657   
C169     C      0.636182800000     0.889057935000     0.833455770000     0.010657   
C170     C      0.150237200000     0.453111025000     0.319303700000     0.027883   
C170     C      0.150237200000     0.453111025000     0.819303700000     0.027883   
C170     C      0.150237200000     0.953111025000     0.319303700000     0.027883   
C170     C      0.150237200000     0.953111025000     0.819303700000     0.027883   
C170     C      0.650237200000     0.453111025000     0.319303700000     0.027883   
C170     C      0.650237200000     0.453111025000     0.819303700000     0.027883   
C170     C      0.650237200000     0.953111025000     0.319303700000     0.027883   
C170     C      0.650237200000     0.953111025000     0.819303700000     0.027883   
C171     C      0.082618825000     0.400463750000     0.275841265000    -0.104596   
C171     C      0.082618825000     0.400463750000     0.775841265000    -0.104596   
C171     C      0.082618825000     0.900463750000     0.275841265000    -0.104596   
C171     C      0.082618825000     0.900463750000     0.775841265000    -0.104596   
C171     C      0.582618825000     0.400463750000     0.275841265000    -0.104596   
C171     C      0.582618825000     0.400463750000     0.775841265000    -0.104596   
C171     C      0.582618825000     0.900463750000     0.275841265000    -0.104596   
C171     C      0.582618825000     0.900463750000     0.775841265000    -0.104596   
C172     C      0.068549530000     0.393189130000     0.246222020000     0.12258    
C172     C      0.068549530000     0.393189130000     0.746222020000     0.12258    
C172     C      0.068549530000     0.893189130000     0.246222020000     0.12258    
C172     C      0.068549530000     0.893189130000     0.746222020000     0.12258    
C172     C      0.568549530000     0.393189130000     0.246222020000     0.12258    
C172     C      0.568549530000     0.393189130000     0.746222020000     0.12258    
C172     C      0.568549530000     0.893189130000     0.246222020000     0.12258    
C172     C      0.568549530000     0.893189130000     0.746222020000     0.12258    
C173     C      0.092368895000     0.397581070000     0.221032750000     0.304337   
C173     C      0.092368895000     0.397581070000     0.721032750000     0.304337   
C173     C      0.092368895000     0.897581070000     0.221032750000     0.304337   
C173     C      0.092368895000     0.897581070000     0.721032750000     0.304337   
C173     C      0.592368895000     0.397581070000     0.221032750000     0.304337   
C173     C      0.592368895000     0.397581070000     0.721032750000     0.304337   
C173     C      0.592368895000     0.897581070000     0.221032750000     0.304337   
C173     C      0.592368895000     0.897581070000     0.721032750000     0.304337   
C174     C      0.130737675000     0.409092350000     0.226196800000     0.232208   
C174     C      0.130737675000     0.409092350000     0.726196800000     0.232208   
C174     C      0.130737675000     0.909092350000     0.226196800000     0.232208   
C174     C      0.130737675000     0.909092350000     0.726196800000     0.232208   
C174     C      0.630737675000     0.409092350000     0.226196800000     0.232208   
C174     C      0.630737675000     0.409092350000     0.726196800000     0.232208   
C174     C      0.630737675000     0.909092350000     0.226196800000     0.232208   
C174     C      0.630737675000     0.909092350000     0.726196800000     0.232208   
C175     C      0.145218910000     0.415378200000     0.255881600000    -0.121671   
C175     C      0.145218910000     0.415378200000     0.755881600000    -0.121671   
C175     C      0.145218910000     0.915378200000     0.255881600000    -0.121671   
C175     C      0.145218910000     0.915378200000     0.755881600000    -0.121671   
C175     C      0.645218910000     0.415378200000     0.255881600000    -0.121671   
C175     C      0.645218910000     0.415378200000     0.755881600000    -0.121671   
C175     C      0.645218910000     0.915378200000     0.255881600000    -0.121671   
C175     C      0.645218910000     0.915378200000     0.755881600000    -0.121671   
C176     C      0.121286500000     0.411299650000     0.281092525000    -0.006485   
C176     C      0.121286500000     0.411299650000     0.781092525000    -0.006485   
C176     C      0.121286500000     0.911299650000     0.281092525000    -0.006485   
C176     C      0.121286500000     0.911299650000     0.781092525000    -0.006485   
C176     C      0.621286500000     0.411299650000     0.281092525000    -0.006485   
C176     C      0.621286500000     0.411299650000     0.781092525000    -0.006485   
C176     C      0.621286500000     0.911299650000     0.281092525000    -0.006485   
C176     C      0.621286500000     0.911299650000     0.781092525000    -0.006485   
C177     C      0.261256650000     0.467721950000     0.496809800000     0.141407   
C177     C      0.261256650000     0.467721950000     0.996809800000     0.141407   
C177     C      0.261256650000     0.967721950000     0.496809800000     0.141407   
C177     C      0.261256650000     0.967721950000     0.996809800000     0.141407   
C177     C      0.761256650000     0.467721950000     0.496809800000     0.141407   
C177     C      0.761256650000     0.467721950000     0.996809800000     0.141407   
C177     C      0.761256650000     0.967721950000     0.496809800000     0.141407   
C177     C      0.761256650000     0.967721950000     0.996809800000     0.141407   
C178     C      0.275335850000     0.474990450000     0.026416240000     0.309725   
C178     C      0.275335850000     0.474990450000     0.526416240000     0.309725   
C178     C      0.275335850000     0.974990450000     0.026416240000     0.309725   
C178     C      0.275335850000     0.974990450000     0.526416240000     0.309725   
C178     C      0.775335850000     0.474990450000     0.026416240000     0.309725   
C178     C      0.775335850000     0.474990450000     0.526416240000     0.309725   
C178     C      0.775335850000     0.974990450000     0.026416240000     0.309725   
C178     C      0.775335850000     0.974990450000     0.526416240000     0.309725   
C179     C      0.251537100000     0.470588900000     0.051620545000     0.136957   
C179     C      0.251537100000     0.470588900000     0.551620545000     0.136957   
C179     C      0.251537100000     0.970588900000     0.051620545000     0.136957   
C179     C      0.251537100000     0.970588900000     0.551620545000     0.136957   
C179     C      0.751537100000     0.470588900000     0.051620545000     0.136957   
C179     C      0.751537100000     0.470588900000     0.551620545000     0.136957   
C179     C      0.751537100000     0.970588900000     0.051620545000     0.136957   
C179     C      0.751537100000     0.970588900000     0.551620545000     0.136957   
C180     C      0.213170080000     0.459069750000     0.046464085000     0.121986   
C180     C      0.213170080000     0.459069750000     0.546464085000     0.121986   
C180     C      0.213170080000     0.959069750000     0.046464085000     0.121986   
C180     C      0.213170080000     0.959069750000     0.546464085000     0.121986   
C180     C      0.713170080000     0.459069750000     0.046464085000     0.121986   
C180     C      0.713170080000     0.459069750000     0.546464085000     0.121986   
C180     C      0.713170080000     0.959069750000     0.046464085000     0.121986   
C180     C      0.713170080000     0.959069750000     0.546464085000     0.121986   
C181     C      0.198673740000     0.452787400000     0.016782285000    -0.125364   
C181     C      0.198673740000     0.452787400000     0.516782285000    -0.125364   
C181     C      0.198673740000     0.952787400000     0.016782285000    -0.125364   
C181     C      0.198673740000     0.952787400000     0.516782285000    -0.125364   
C181     C      0.698673740000     0.452787400000     0.016782285000    -0.125364   
C181     C      0.698673740000     0.452787400000     0.516782285000    -0.125364   
C181     C      0.698673740000     0.952787400000     0.016782285000    -0.125364   
C181     C      0.698673740000     0.952787400000     0.516782285000    -0.125364   
C182     C      0.222590625000     0.456878300000     0.491566120000     0.114646   
C182     C      0.222590625000     0.456878300000     0.991566120000     0.114646   
C182     C      0.222590625000     0.956878300000     0.491566120000     0.114646   
C182     C      0.222590625000     0.956878300000     0.991566120000     0.114646   
C182     C      0.722590625000     0.456878300000     0.491566120000     0.114646   
C182     C      0.722590625000     0.456878300000     0.991566120000     0.114646   
C182     C      0.722590625000     0.956878300000     0.491566120000     0.114646   
C182     C      0.722590625000     0.956878300000     0.991566120000     0.114646   
C183     C      0.077512350000     0.389654600000     0.189615750000    -0.290517   
C183     C      0.077512350000     0.389654600000     0.689615750000    -0.290517   
C183     C      0.077512350000     0.889654600000     0.189615750000    -0.290517   
C183     C      0.077512350000     0.889654600000     0.689615750000    -0.290517   
C183     C      0.577512350000     0.389654600000     0.189615750000    -0.290517   
C183     C      0.577512350000     0.389654600000     0.689615750000    -0.290517   
C183     C      0.577512350000     0.889654600000     0.189615750000    -0.290517   
C183     C      0.577512350000     0.889654600000     0.689615750000    -0.290517   
C184     C      0.011507840000     0.267752650000     0.136354310000     0.317472   
C184     C      0.011507840000     0.267752650000     0.636354310000     0.317472   
C184     C      0.011507840000     0.767752650000     0.136354310000     0.317472   
C184     C      0.011507840000     0.767752650000     0.636354310000     0.317472   
C184     C      0.511507840000     0.267752650000     0.136354310000     0.317472   
C184     C      0.511507840000     0.267752650000     0.636354310000     0.317472   
C184     C      0.511507840000     0.767752650000     0.136354310000     0.317472   
C184     C      0.511507840000     0.767752650000     0.636354310000     0.317472   
C185     C      0.046935790000     0.288247465000     0.132956325000     0.153058   
C185     C      0.046935790000     0.288247465000     0.632956325000     0.153058   
C185     C      0.046935790000     0.788247465000     0.132956325000     0.153058   
C185     C      0.046935790000     0.788247465000     0.632956325000     0.153058   
C185     C      0.546935790000     0.288247465000     0.132956325000     0.153058   
C185     C      0.546935790000     0.288247465000     0.632956325000     0.153058   
C185     C      0.546935790000     0.788247465000     0.132956325000     0.153058   
C185     C      0.546935790000     0.788247465000     0.632956325000     0.153058   
C186     C      0.044744365000     0.328991700000     0.136389465000    -0.181346   
C186     C      0.044744365000     0.328991700000     0.636389465000    -0.181346   
C186     C      0.044744365000     0.828991700000     0.136389465000    -0.181346   
C186     C      0.044744365000     0.828991700000     0.636389465000    -0.181346   
C186     C      0.544744365000     0.328991700000     0.136389465000    -0.181346   
C186     C      0.544744365000     0.328991700000     0.636389465000    -0.181346   
C186     C      0.544744365000     0.828991700000     0.136389465000    -0.181346   
C186     C      0.544744365000     0.828991700000     0.636389465000    -0.181346   
C187     C      0.005881305000     0.355731000000     0.142511590000    -0.170369   
C187     C      0.005881305000     0.355731000000     0.642511590000    -0.170369   
C187     C      0.005881305000     0.855731000000     0.142511590000    -0.170369   
C187     C      0.005881305000     0.855731000000     0.642511590000    -0.170369   
C187     C      0.505881305000     0.355731000000     0.142511590000    -0.170369   
C187     C      0.505881305000     0.355731000000     0.642511590000    -0.170369   
C187     C      0.505881305000     0.855731000000     0.142511590000    -0.170369   
C187     C      0.505881305000     0.855731000000     0.642511590000    -0.170369   
C188     C      0.085553690000     0.261682600000     0.125883535000    -0.170665   
C188     C      0.085553690000     0.261682600000     0.625883535000    -0.170665   
C188     C      0.085553690000     0.761682600000     0.125883535000    -0.170665   
C188     C      0.085553690000     0.761682600000     0.625883535000    -0.170665   
C188     C      0.585553690000     0.261682600000     0.125883535000    -0.170665   
C188     C      0.585553690000     0.261682600000     0.625883535000    -0.170665   
C188     C      0.585553690000     0.761682600000     0.125883535000    -0.170665   
C188     C      0.585553690000     0.761682600000     0.625883535000    -0.170665   
C189     C      0.080635735000     0.349205970000     0.134638600000    -0.728444   
C189     C      0.080635735000     0.349205970000     0.634638600000    -0.728444   
C189     C      0.080635735000     0.849205970000     0.134638600000    -0.728444   
C189     C      0.080635735000     0.849205970000     0.634638600000    -0.728444   
C189     C      0.580635735000     0.349205970000     0.134638600000    -0.728444   
C189     C      0.580635735000     0.349205970000     0.634638600000    -0.728444   
C189     C      0.580635735000     0.849205970000     0.134638600000    -0.728444   
C189     C      0.580635735000     0.849205970000     0.634638600000    -0.728444   
C190     C      0.301894300000     0.037840820000     0.138854640000    -0.057736   
C190     C      0.301894300000     0.037840820000     0.638854640000    -0.057736   
C190     C      0.301894300000     0.537840820000     0.138854640000    -0.057736   
C190     C      0.301894300000     0.537840820000     0.638854640000    -0.057736   
C190     C      0.801894300000     0.037840820000     0.138854640000    -0.057736   
C190     C      0.801894300000     0.037840820000     0.638854640000    -0.057736   
C190     C      0.801894300000     0.537840820000     0.138854640000    -0.057736   
C190     C      0.801894300000     0.537840820000     0.638854640000    -0.057736   
C191     C      0.290784330000     0.078457475000     0.136350960000    -0.06354    
C191     C      0.290784330000     0.078457475000     0.636350960000    -0.06354    
C191     C      0.290784330000     0.578457475000     0.136350960000    -0.06354    
C191     C      0.290784330000     0.578457475000     0.636350960000    -0.06354    
C191     C      0.790784330000     0.078457475000     0.136350960000    -0.06354    
C191     C      0.790784330000     0.078457475000     0.636350960000    -0.06354    
C191     C      0.790784330000     0.578457475000     0.136350960000    -0.06354    
C191     C      0.790784330000     0.578457475000     0.636350960000    -0.06354    
C192     C      0.320875020000     0.105989440000     0.135187535000    -0.091272   
C192     C      0.320875020000     0.105989440000     0.635187535000    -0.091272   
C192     C      0.320875020000     0.605989440000     0.135187535000    -0.091272   
C192     C      0.320875020000     0.605989440000     0.635187535000    -0.091272   
C192     C      0.820875020000     0.105989440000     0.135187535000    -0.091272   
C192     C      0.820875020000     0.105989440000     0.635187535000    -0.091272   
C192     C      0.820875020000     0.605989440000     0.135187535000    -0.091272   
C192     C      0.820875020000     0.605989440000     0.635187535000    -0.091272   
C193     C      0.272270175000     0.009743315000     0.137568550000    -0.154555   
C193     C      0.272270175000     0.009743315000     0.637568550000    -0.154555   
C193     C      0.272270175000     0.509743315000     0.137568550000    -0.154555   
C193     C      0.272270175000     0.509743315000     0.637568550000    -0.154555   
C193     C      0.772270175000     0.009743315000     0.137568550000    -0.154555   
C193     C      0.772270175000     0.009743315000     0.637568550000    -0.154555   
C193     C      0.772270175000     0.509743315000     0.137568550000    -0.154555   
C193     C      0.772270175000     0.509743315000     0.637568550000    -0.154555   
C194     C      0.247476190000     0.097457910000     0.133740500000    -0.174655   
C194     C      0.247476190000     0.097457910000     0.633740500000    -0.174655   
C194     C      0.247476190000     0.597457910000     0.133740500000    -0.174655   
C194     C      0.247476190000     0.597457910000     0.633740500000    -0.174655   
C194     C      0.747476190000     0.097457910000     0.133740500000    -0.174655   
C194     C      0.747476190000     0.097457910000     0.633740500000    -0.174655   
C194     C      0.747476190000     0.597457910000     0.133740500000    -0.174655   
C194     C      0.747476190000     0.597457910000     0.633740500000    -0.174655   
C195     C      0.344985785000     0.019391315000     0.143802165000    -0.05236    
C195     C      0.344985785000     0.019391315000     0.643802165000    -0.05236    
C195     C      0.344985785000     0.519391315000     0.143802165000    -0.05236    
C195     C      0.344985785000     0.519391315000     0.643802165000    -0.05236    
C195     C      0.844985785000     0.019391315000     0.143802165000    -0.05236    
C195     C      0.844985785000     0.019391315000     0.643802165000    -0.05236    
C195     C      0.844985785000     0.519391315000     0.143802165000    -0.05236    
C195     C      0.844985785000     0.519391315000     0.643802165000    -0.05236    
Br196    Br     0.292776900000     0.235084490000     0.081543670000    -0.464686   
Br196    Br     0.292776900000     0.235084490000     0.581543670000    -0.464686   
Br196    Br     0.292776900000     0.735084490000     0.081543670000    -0.464686   
Br196    Br     0.292776900000     0.735084490000     0.581543670000    -0.464686   
Br196    Br     0.792776900000     0.235084490000     0.081543670000    -0.464686   
Br196    Br     0.792776900000     0.235084490000     0.581543670000    -0.464686   
Br196    Br     0.792776900000     0.735084490000     0.081543670000    -0.464686   
Br196    Br     0.792776900000     0.735084490000     0.581543670000    -0.464686   
N197     N      0.404512750000     0.135022015000     0.316295415000    -0.154334   
N197     N      0.404512750000     0.135022015000     0.816295415000    -0.154334   
N197     N      0.404512750000     0.635022015000     0.316295415000    -0.154334   
N197     N      0.404512750000     0.635022015000     0.816295415000    -0.154334   
N197     N      0.904512750000     0.135022015000     0.316295415000    -0.154334   
N197     N      0.904512750000     0.135022015000     0.816295415000    -0.154334   
N197     N      0.904512750000     0.635022015000     0.316295415000    -0.154334   
N197     N      0.904512750000     0.635022015000     0.816295415000    -0.154334   
N198     N      0.437269480000     0.233461335000     0.454686350000     0.00465    
N198     N      0.437269480000     0.233461335000     0.954686350000     0.00465    
N198     N      0.437269480000     0.733461335000     0.454686350000     0.00465    
N198     N      0.437269480000     0.733461335000     0.954686350000     0.00465    
N198     N      0.937269480000     0.233461335000     0.454686350000     0.00465    
N198     N      0.937269480000     0.233461335000     0.954686350000     0.00465    
N198     N      0.937269480000     0.733461335000     0.454686350000     0.00465    
N198     N      0.937269480000     0.733461335000     0.954686350000     0.00465    
N199     N      0.011957880000     0.052698720000     0.131980715000    -0.151426   
N199     N      0.011957880000     0.052698720000     0.631980715000    -0.151426   
N199     N      0.011957880000     0.552698720000     0.131980715000    -0.151426   
N199     N      0.011957880000     0.552698720000     0.631980715000    -0.151426   
N199     N      0.511957880000     0.052698720000     0.131980715000    -0.151426   
N199     N      0.511957880000     0.052698720000     0.631980715000    -0.151426   
N199     N      0.511957880000     0.552698720000     0.131980715000    -0.151426   
N199     N      0.511957880000     0.552698720000     0.631980715000    -0.151426   
N200     N      0.043851130000     0.024113050000     0.132408975000    -0.065166   
N200     N      0.043851130000     0.024113050000     0.632408975000    -0.065166   
N200     N      0.043851130000     0.524113050000     0.132408975000    -0.065166   
N200     N      0.043851130000     0.524113050000     0.632408975000    -0.065166   
N200     N      0.543851130000     0.024113050000     0.132408975000    -0.065166   
N200     N      0.543851130000     0.024113050000     0.632408975000    -0.065166   
N200     N      0.543851130000     0.524113050000     0.132408975000    -0.065166   
N200     N      0.543851130000     0.524113050000     0.632408975000    -0.065166   
N201     N      0.080099145000     0.064329490000     0.104819530000    -0.19113    
N201     N      0.080099145000     0.064329490000     0.604819530000    -0.19113    
N201     N      0.080099145000     0.564329490000     0.104819530000    -0.19113    
N201     N      0.080099145000     0.564329490000     0.604819530000    -0.19113    
N201     N      0.580099145000     0.064329490000     0.104819530000    -0.19113    
N201     N      0.580099145000     0.064329490000     0.604819530000    -0.19113    
N201     N      0.580099145000     0.564329490000     0.104819530000    -0.19113    
N201     N      0.580099145000     0.564329490000     0.604819530000    -0.19113    
N202     N      0.048097120000     0.093040785000     0.104368130000    -0.174807   
N202     N      0.048097120000     0.093040785000     0.604368130000    -0.174807   
N202     N      0.048097120000     0.593040785000     0.104368130000    -0.174807   
N202     N      0.048097120000     0.593040785000     0.604368130000    -0.174807   
N202     N      0.548097120000     0.093040785000     0.104368130000    -0.174807   
N202     N      0.548097120000     0.093040785000     0.604368130000    -0.174807   
N202     N      0.548097120000     0.593040785000     0.104368130000    -0.174807   
N202     N      0.548097120000     0.593040785000     0.604368130000    -0.174807   
N203     N      0.207651720000     0.450228700000     0.460784375000    -0.203343   
N203     N      0.207651720000     0.450228700000     0.960784375000    -0.203343   
N203     N      0.207651720000     0.950228700000     0.460784375000    -0.203343   
N203     N      0.207651720000     0.950228700000     0.960784375000    -0.203343   
N203     N      0.707651720000     0.450228700000     0.460784375000    -0.203343   
N203     N      0.707651720000     0.450228700000     0.960784375000    -0.203343   
N203     N      0.707651720000     0.950228700000     0.460784375000    -0.203343   
N203     N      0.707651720000     0.950228700000     0.960784375000    -0.203343   
N204     N      0.136211635000     0.417953800000     0.311876600000    -0.136496   
N204     N      0.136211635000     0.417953800000     0.811876600000    -0.136496   
N204     N      0.136211635000     0.917953800000     0.311876600000    -0.136496   
N204     N      0.136211635000     0.917953800000     0.811876600000    -0.136496   
N204     N      0.636211635000     0.417953800000     0.311876600000    -0.136496   
N204     N      0.636211635000     0.417953800000     0.811876600000    -0.136496   
N204     N      0.636211635000     0.917953800000     0.311876600000    -0.136496   
N204     N      0.636211635000     0.917953800000     0.811876600000    -0.136496   
N205     N      0.483909935000     0.250811550000     0.138741800000     1.54526    
N205     N      0.483909935000     0.250811550000     0.638741800000     1.54526    
N205     N      0.483909935000     0.750811550000     0.138741800000     1.54526    
N205     N      0.483909935000     0.750811550000     0.638741800000     1.54526    
N205     N      0.983909935000     0.250811550000     0.138741800000     1.54526    
N205     N      0.983909935000     0.250811550000     0.638741800000     1.54526    
N205     N      0.983909935000     0.750811550000     0.138741800000     1.54526    
N205     N      0.983909935000     0.750811550000     0.638741800000     1.54526    
N206     N      0.108504550000     0.365968885000     0.133176135000     0.271152   
N206     N      0.108504550000     0.365968885000     0.633176135000     0.271152   
N206     N      0.108504550000     0.865968885000     0.133176135000     0.271152   
N206     N      0.108504550000     0.865968885000     0.633176135000     0.271152   
N206     N      0.608504550000     0.365968885000     0.133176135000     0.271152   
N206     N      0.608504550000     0.365968885000     0.633176135000     0.271152   
N206     N      0.608504550000     0.865968885000     0.133176135000     0.271152   
N206     N      0.608504550000     0.865968885000     0.633176135000     0.271152   
N207     N      0.249549250000     0.486789825000     0.137396800000    -0.419311   
N207     N      0.249549250000     0.486789825000     0.637396800000    -0.419311   
N207     N      0.249549250000     0.986789825000     0.137396800000    -0.419311   
N207     N      0.249549250000     0.986789825000     0.637396800000    -0.419311   
N207     N      0.749549250000     0.486789825000     0.137396800000    -0.419311   
N207     N      0.749549250000     0.486789825000     0.637396800000    -0.419311   
N207     N      0.749549250000     0.986789825000     0.137396800000    -0.419311   
N207     N      0.749549250000     0.986789825000     0.637396800000    -0.419311   
N208     N      0.343874050000     0.128535675000     0.133901685000     0.428873   
N208     N      0.343874050000     0.128535675000     0.633901685000     0.428873   
N208     N      0.343874050000     0.628535675000     0.133901685000     0.428873   
N208     N      0.343874050000     0.628535675000     0.633901685000     0.428873   
N208     N      0.843874050000     0.128535675000     0.133901685000     0.428873   
N208     N      0.843874050000     0.128535675000     0.633901685000     0.428873   
N208     N      0.843874050000     0.628535675000     0.133901685000     0.428873   
N208     N      0.843874050000     0.628535675000     0.633901685000     0.428873   
O209     O      0.277002780000     0.240831100000     0.144991130000    -0.175475   
O209     O      0.277002780000     0.240831100000     0.644991130000    -0.175475   
O209     O      0.277002780000     0.740831100000     0.144991130000    -0.175475   
O209     O      0.277002780000     0.740831100000     0.644991130000    -0.175475   
O209     O      0.777002780000     0.240831100000     0.144991130000    -0.175475   
O209     O      0.777002780000     0.240831100000     0.644991130000    -0.175475   
O209     O      0.777002780000     0.740831100000     0.144991130000    -0.175475   
O209     O      0.777002780000     0.740831100000     0.644991130000    -0.175475   
O210     O      0.305728970000     0.391148625000     0.123457810000    -0.221932   
O210     O      0.305728970000     0.391148625000     0.623457810000    -0.221932   
O210     O      0.305728970000     0.891148625000     0.123457810000    -0.221932   
O210     O      0.305728970000     0.891148625000     0.623457810000    -0.221932   
O210     O      0.805728970000     0.391148625000     0.123457810000    -0.221932   
O210     O      0.805728970000     0.391148625000     0.623457810000    -0.221932   
O210     O      0.805728970000     0.891148625000     0.123457810000    -0.221932   
O210     O      0.805728970000     0.891148625000     0.623457810000    -0.221932   
O211     O      0.360086320000     0.337134330000     0.108260215000    -0.188263   
O211     O      0.360086320000     0.337134330000     0.608260215000    -0.188263   
O211     O      0.360086320000     0.837134330000     0.108260215000    -0.188263   
O211     O      0.360086320000     0.837134330000     0.608260215000    -0.188263   
O211     O      0.860086320000     0.337134330000     0.108260215000    -0.188263   
O211     O      0.860086320000     0.337134330000     0.608260215000    -0.188263   
O211     O      0.860086320000     0.837134330000     0.108260215000    -0.188263   
O211     O      0.860086320000     0.837134330000     0.608260215000    -0.188263   
O212     O      0.374939700000     0.323275250000     0.160481585000    -0.19094    
O212     O      0.374939700000     0.323275250000     0.660481585000    -0.19094    
O212     O      0.374939700000     0.823275250000     0.160481585000    -0.19094    
O212     O      0.374939700000     0.823275250000     0.660481585000    -0.19094    
O212     O      0.874939700000     0.323275250000     0.160481585000    -0.19094    
O212     O      0.874939700000     0.323275250000     0.660481585000    -0.19094    
O212     O      0.874939700000     0.823275250000     0.160481585000    -0.19094    
O212     O      0.874939700000     0.823275250000     0.660481585000    -0.19094    
O213     O      0.316061615000     0.256045700000     0.186161710000    -0.197069   
O213     O      0.316061615000     0.256045700000     0.686161710000    -0.197069   
O213     O      0.316061615000     0.756045700000     0.186161710000    -0.197069   
O213     O      0.316061615000     0.756045700000     0.686161710000    -0.197069   
O213     O      0.816061615000     0.256045700000     0.186161710000    -0.197069   
O213     O      0.816061615000     0.256045700000     0.686161710000    -0.197069   
O213     O      0.816061615000     0.756045700000     0.186161710000    -0.197069   
O213     O      0.816061615000     0.756045700000     0.686161710000    -0.197069   
O214     O      0.231394110000     0.301856520000     0.098268570000    -0.189327   
O214     O      0.231394110000     0.301856520000     0.598268570000    -0.189327   
O214     O      0.231394110000     0.801856520000     0.098268570000    -0.189327   
O214     O      0.231394110000     0.801856520000     0.598268570000    -0.189327   
O214     O      0.731394110000     0.301856520000     0.098268570000    -0.189327   
O214     O      0.731394110000     0.301856520000     0.598268570000    -0.189327   
O214     O      0.731394110000     0.801856520000     0.098268570000    -0.189327   
O214     O      0.731394110000     0.801856520000     0.598268570000    -0.189327   
O215     O      0.236868965000     0.405266225000     0.140776830000    -0.187412   
O215     O      0.236868965000     0.405266225000     0.640776830000    -0.187412   
O215     O      0.236868965000     0.905266225000     0.140776830000    -0.187412   
O215     O      0.236868965000     0.905266225000     0.640776830000    -0.187412   
O215     O      0.736868965000     0.405266225000     0.140776830000    -0.187412   
O215     O      0.736868965000     0.405266225000     0.640776830000    -0.187412   
O215     O      0.736868965000     0.905266225000     0.140776830000    -0.187412   
O215     O      0.736868965000     0.905266225000     0.640776830000    -0.187412   
O216     O      0.193973065000     0.361121350000     0.130659700000    -0.220074   
O216     O      0.193973065000     0.361121350000     0.630659700000    -0.220074   
O216     O      0.193973065000     0.861121350000     0.130659700000    -0.220074   
O216     O      0.193973065000     0.861121350000     0.630659700000    -0.220074   
O216     O      0.693973065000     0.361121350000     0.130659700000    -0.220074   
O216     O      0.693973065000     0.361121350000     0.630659700000    -0.220074   
O216     O      0.693973065000     0.861121350000     0.130659700000    -0.220074   
O216     O      0.693973065000     0.861121350000     0.630659700000    -0.220074   
O217     O      0.397376330000     0.256129680000     0.140360700000    -0.235383   
O217     O      0.397376330000     0.256129680000     0.640360700000    -0.235383   
O217     O      0.397376330000     0.756129680000     0.140360700000    -0.235383   
O217     O      0.397376330000     0.756129680000     0.640360700000    -0.235383   
O217     O      0.897376330000     0.256129680000     0.140360700000    -0.235383   
O217     O      0.897376330000     0.256129680000     0.640360700000    -0.235383   
O217     O      0.897376330000     0.756129680000     0.140360700000    -0.235383   
O217     O      0.897376330000     0.756129680000     0.640360700000    -0.235383   
O218     O      0.354480400000     0.211984815000     0.130243570000     0.036389   
O218     O      0.354480400000     0.211984815000     0.630243570000     0.036389   
O218     O      0.354480400000     0.711984815000     0.130243570000     0.036389   
O218     O      0.354480400000     0.711984815000     0.630243570000     0.036389   
O218     O      0.854480400000     0.211984815000     0.130243570000     0.036389   
O218     O      0.854480400000     0.211984815000     0.630243570000     0.036389   
O218     O      0.854480400000     0.711984815000     0.130243570000     0.036389   
O218     O      0.854480400000     0.711984815000     0.630243570000     0.036389   
O219     O      0.312798700000     0.368885550000     0.175535085000    -0.465327   
O219     O      0.312798700000     0.368885550000     0.675535085000    -0.465327   
O219     O      0.312798700000     0.868885550000     0.175535085000    -0.465327   
O219     O      0.312798700000     0.868885550000     0.675535085000    -0.465327   
O219     O      0.812798700000     0.368885550000     0.175535085000    -0.465327   
O219     O      0.812798700000     0.368885550000     0.675535085000    -0.465327   
O219     O      0.812798700000     0.868885550000     0.175535085000    -0.465327   
O219     O      0.812798700000     0.868885550000     0.675535085000    -0.465327   
O220     O      0.356190650000     0.023788145000     0.203688085000    -1.60881    
O220     O      0.356190650000     0.023788145000     0.703688085000    -1.60881    
O220     O      0.356190650000     0.523788145000     0.203688085000    -1.60881    
O220     O      0.356190650000     0.523788145000     0.703688085000    -1.60881    
O220     O      0.856190650000     0.023788145000     0.203688085000    -1.60881    
O220     O      0.856190650000     0.023788145000     0.703688085000    -1.60881    
O220     O      0.856190650000     0.523788145000     0.203688085000    -1.60881    
O220     O      0.856190650000     0.523788145000     0.703688085000    -1.60881    
O221     O      0.389304500000     0.066636705000     0.177958450000    -0.353984   
O221     O      0.389304500000     0.066636705000     0.677958450000    -0.353984   
O221     O      0.389304500000     0.566636705000     0.177958450000    -0.353984   
O221     O      0.389304500000     0.566636705000     0.677958450000    -0.353984   
O221     O      0.889304500000     0.066636705000     0.177958450000    -0.353984   
O221     O      0.889304500000     0.066636705000     0.677958450000    -0.353984   
O221     O      0.889304500000     0.566636705000     0.177958450000    -0.353984   
O221     O      0.889304500000     0.566636705000     0.677958450000    -0.353984   
O222     O      0.344784825000     0.116595820000     0.335255550000    -0.108767   
O222     O      0.344784825000     0.116595820000     0.835255550000    -0.108767   
O222     O      0.344784825000     0.616595820000     0.335255550000    -0.108767   
O222     O      0.344784825000     0.616595820000     0.835255550000    -0.108767   
O222     O      0.844784825000     0.116595820000     0.335255550000    -0.108767   
O222     O      0.844784825000     0.116595820000     0.835255550000    -0.108767   
O222     O      0.844784825000     0.616595820000     0.335255550000    -0.108767   
O222     O      0.844784825000     0.616595820000     0.835255550000    -0.108767   
O223     O      0.464209350000     0.153779180000     0.297559950000     0.137281   
O223     O      0.464209350000     0.153779180000     0.797559950000     0.137281   
O223     O      0.464209350000     0.653779180000     0.297559950000     0.137281   
O223     O      0.464209350000     0.653779180000     0.797559950000     0.137281   
O223     O      0.964209350000     0.153779180000     0.297559950000     0.137281   
O223     O      0.964209350000     0.153779180000     0.797559950000     0.137281   
O223     O      0.964209350000     0.653779180000     0.297559950000     0.137281   
O223     O      0.964209350000     0.653779180000     0.797559950000     0.137281   
O224     O      0.497010450000     0.251874700000     0.435734330000    -0.24702    
O224     O      0.497010450000     0.251874700000     0.935734330000    -0.24702    
O224     O      0.497010450000     0.751874700000     0.435734330000    -0.24702    
O224     O      0.497010450000     0.751874700000     0.935734330000    -0.24702    
O224     O      0.997010450000     0.251874700000     0.435734330000    -0.24702    
O224     O      0.997010450000     0.251874700000     0.935734330000    -0.24702    
O224     O      0.997010450000     0.751874700000     0.435734330000    -0.24702    
O224     O      0.997010450000     0.751874700000     0.935734330000    -0.24702    
O225     O      0.377557875000     0.214726800000     0.473416450000    -0.103536   
O225     O      0.377557875000     0.214726800000     0.973416450000    -0.103536   
O225     O      0.377557875000     0.714726800000     0.473416450000    -0.103536   
O225     O      0.377557875000     0.714726800000     0.973416450000    -0.103536   
O225     O      0.877557875000     0.214726800000     0.473416450000    -0.103536   
O225     O      0.877557875000     0.214726800000     0.973416450000    -0.103536   
O225     O      0.877557875000     0.714726800000     0.473416450000    -0.103536   
O225     O      0.877557875000     0.714726800000     0.973416450000    -0.103536   
O226     O      0.485604225000     0.344649820000     0.067322670000    -0.145186   
O226     O      0.485604225000     0.344649820000     0.567322670000    -0.145186   
O226     O      0.485604225000     0.844649820000     0.067322670000    -0.145186   
O226     O      0.485604225000     0.844649820000     0.567322670000    -0.145186   
O226     O      0.985604225000     0.344649820000     0.067322670000    -0.145186   
O226     O      0.985604225000     0.344649820000     0.567322670000    -0.145186   
O226     O      0.985604225000     0.844649820000     0.067322670000    -0.145186   
O226     O      0.985604225000     0.844649820000     0.567322670000    -0.145186   
O227     O      0.452491450000     0.301787100000     0.093038855000    -0.126148   
O227     O      0.452491450000     0.301787100000     0.593038855000    -0.126148   
O227     O      0.452491450000     0.801787100000     0.093038855000    -0.126148   
O227     O      0.452491450000     0.801787100000     0.593038855000    -0.126148   
O227     O      0.952491450000     0.301787100000     0.093038855000    -0.126148   
O227     O      0.952491450000     0.301787100000     0.593038855000    -0.126148   
O227     O      0.952491450000     0.801787100000     0.093038855000    -0.126148   
O227     O      0.952491450000     0.801787100000     0.593038855000    -0.126148   
O228     O      0.383036600000     0.248074235000     0.143297200000    -0.125963   
O228     O      0.383036600000     0.248074235000     0.643297200000    -0.125963   
O228     O      0.383036600000     0.748074235000     0.143297200000    -0.125963   
O228     O      0.383036600000     0.748074235000     0.643297200000    -0.125963   
O228     O      0.883036600000     0.248074235000     0.143297200000    -0.125963   
O228     O      0.883036600000     0.248074235000     0.643297200000    -0.125963   
O228     O      0.883036600000     0.748074235000     0.143297200000    -0.125963   
O228     O      0.883036600000     0.748074235000     0.643297200000    -0.125963   
O229     O      0.341618050000     0.202498170000     0.130468520000    -0.189578   
O229     O      0.341618050000     0.202498170000     0.630468520000    -0.189578   
O229     O      0.341618050000     0.702498170000     0.130468520000    -0.189578   
O229     O      0.341618050000     0.702498170000     0.630468520000    -0.189578   
O229     O      0.841618050000     0.202498170000     0.130468520000    -0.189578   
O229     O      0.841618050000     0.202498170000     0.630468520000    -0.189578   
O229     O      0.841618050000     0.702498170000     0.130468520000    -0.189578   
O229     O      0.841618050000     0.702498170000     0.630468520000    -0.189578   
O230     O      0.251328020000     0.413508950000     0.141874050000    -0.193712   
O230     O      0.251328020000     0.413508950000     0.641874050000    -0.193712   
O230     O      0.251328020000     0.913508950000     0.141874050000    -0.193712   
O230     O      0.251328020000     0.913508950000     0.641874050000    -0.193712   
O230     O      0.751328020000     0.413508950000     0.141874050000    -0.193712   
O230     O      0.751328020000     0.413508950000     0.641874050000    -0.193712   
O230     O      0.751328020000     0.913508950000     0.141874050000    -0.193712   
O230     O      0.751328020000     0.913508950000     0.641874050000    -0.193712   
O231     O      0.209909485000     0.367932850000     0.129045380000    -0.20458    
O231     O      0.209909485000     0.367932850000     0.629045380000    -0.20458    
O231     O      0.209909485000     0.867932850000     0.129045380000    -0.20458    
O231     O      0.209909485000     0.867932850000     0.629045380000    -0.20458    
O231     O      0.709909485000     0.367932850000     0.129045380000    -0.20458    
O231     O      0.709909485000     0.367932850000     0.629045380000    -0.20458    
O231     O      0.709909485000     0.867932850000     0.129045380000    -0.20458    
O231     O      0.709909485000     0.867932850000     0.629045380000    -0.20458    
O232     O      0.023877390000     0.171369375000     0.126960770000    -0.213901   
O232     O      0.023877390000     0.171369375000     0.626960770000    -0.213901   
O232     O      0.023877390000     0.671369375000     0.126960770000    -0.213901   
O232     O      0.023877390000     0.671369375000     0.626960770000    -0.213901   
O232     O      0.523877390000     0.171369375000     0.126960770000    -0.213901   
O232     O      0.523877390000     0.171369375000     0.626960770000    -0.213901   
O232     O      0.523877390000     0.671369375000     0.126960770000    -0.213901   
O232     O      0.523877390000     0.671369375000     0.626960770000    -0.213901   
O233     O      0.431336375000     0.073615780000     0.111401930000    -0.336902   
O233     O      0.431336375000     0.073615780000     0.611401930000    -0.336902   
O233     O      0.431336375000     0.573615780000     0.111401930000    -0.336902   
O233     O      0.431336375000     0.573615780000     0.611401930000    -0.336902   
O233     O      0.931336375000     0.073615780000     0.111401930000    -0.336902   
O233     O      0.931336375000     0.073615780000     0.611401930000    -0.336902   
O233     O      0.931336375000     0.573615780000     0.111401930000    -0.336902   
O233     O      0.931336375000     0.573615780000     0.611401930000    -0.336902   
O234     O      0.161159215000     0.043981265000     0.111242950000    -0.18225    
O234     O      0.161159215000     0.043981265000     0.611242950000    -0.18225    
O234     O      0.161159215000     0.543981265000     0.111242950000    -0.18225    
O234     O      0.161159215000     0.543981265000     0.611242950000    -0.18225    
O234     O      0.661159215000     0.043981265000     0.111242950000    -0.18225    
O234     O      0.661159215000     0.043981265000     0.611242950000    -0.18225    
O234     O      0.661159215000     0.543981265000     0.111242950000    -0.18225    
O234     O      0.661159215000     0.543981265000     0.611242950000    -0.18225    
O235     O      0.133242890000     0.391418000000     0.141770200000    -0.314128   
O235     O      0.133242890000     0.391418000000     0.641770200000    -0.314128   
O235     O      0.133242890000     0.891418000000     0.141770200000    -0.314128   
O235     O      0.133242890000     0.891418000000     0.641770200000    -0.314128   
O235     O      0.633242890000     0.391418000000     0.141770200000    -0.314128   
O235     O      0.633242890000     0.391418000000     0.641770200000    -0.314128   
O235     O      0.633242890000     0.891418000000     0.141770200000    -0.314128   
O235     O      0.633242890000     0.891418000000     0.641770200000    -0.314128   
O236     O      0.293328730000     0.002174615000     0.086449085000    -0.24165    
O236     O      0.293328730000     0.002174615000     0.586449085000    -0.24165    
O236     O      0.293328730000     0.502174615000     0.086449085000    -0.24165    
O236     O      0.293328730000     0.502174615000     0.586449085000    -0.24165    
O236     O      0.793328730000     0.002174615000     0.086449085000    -0.24165    
O236     O      0.793328730000     0.002174615000     0.586449085000    -0.24165    
O236     O      0.793328730000     0.502174615000     0.086449085000    -0.24165    
O236     O      0.793328730000     0.502174615000     0.586449085000    -0.24165    
O237     O      0.252050850000     0.461071050000     0.105445920000    -0.317027   
O237     O      0.252050850000     0.461071050000     0.605445920000    -0.317027   
O237     O      0.252050850000     0.961071050000     0.105445920000    -0.317027   
O237     O      0.252050850000     0.961071050000     0.605445920000    -0.317027   
O237     O      0.752050850000     0.461071050000     0.105445920000    -0.317027   
O237     O      0.752050850000     0.461071050000     0.605445920000    -0.317027   
O237     O      0.752050850000     0.961071050000     0.105445920000    -0.317027   
O237     O      0.752050850000     0.961071050000     0.605445920000    -0.317027   
O238     O      0.220384950000     0.013977170000     0.446874150000    -0.232409   
O238     O      0.220384950000     0.013977170000     0.946874150000    -0.232409   
O238     O      0.220384950000     0.513977170000     0.446874150000    -0.232409   
O238     O      0.220384950000     0.513977170000     0.946874150000    -0.232409   
O238     O      0.720384950000     0.013977170000     0.446874150000    -0.232409   
O238     O      0.720384950000     0.013977170000     0.946874150000    -0.232409   
O238     O      0.720384950000     0.513977170000     0.446874150000    -0.232409   
O238     O      0.720384950000     0.513977170000     0.946874150000    -0.232409   
O239     O      0.194623335000     0.386489480000     0.474437300000    -0.359477   
O239     O      0.194623335000     0.386489480000     0.974437300000    -0.359477   
O239     O      0.194623335000     0.886489480000     0.474437300000    -0.359477   
O239     O      0.194623335000     0.886489480000     0.974437300000    -0.359477   
O239     O      0.694623335000     0.386489480000     0.474437300000    -0.359477   
O239     O      0.694623335000     0.386489480000     0.974437300000    -0.359477   
O239     O      0.694623335000     0.886489480000     0.474437300000    -0.359477   
O239     O      0.694623335000     0.886489480000     0.974437300000    -0.359477   
O240     O      0.123493925000     0.354194850000     0.325779700000    -0.172514   
O240     O      0.123493925000     0.354194850000     0.825779700000    -0.172514   
O240     O      0.123493925000     0.854194850000     0.325779700000    -0.172514   
O240     O      0.123493925000     0.854194850000     0.825779700000    -0.172514   
O240     O      0.623493925000     0.354194850000     0.325779700000    -0.172514   
O240     O      0.623493925000     0.354194850000     0.825779700000    -0.172514   
O240     O      0.623493925000     0.854194850000     0.325779700000    -0.172514   
O240     O      0.623493925000     0.854194850000     0.825779700000    -0.172514   
O241     O      0.149215050000     0.481704450000     0.298227130000    -0.226275   
O241     O      0.149215050000     0.481704450000     0.798227130000    -0.226275   
O241     O      0.149215050000     0.981704450000     0.298227130000    -0.226275   
O241     O      0.149215050000     0.981704450000     0.798227130000    -0.226275   
O241     O      0.649215050000     0.481704450000     0.298227130000    -0.226275   
O241     O      0.649215050000     0.481704450000     0.798227130000    -0.226275   
O241     O      0.649215050000     0.981704450000     0.298227130000    -0.226275   
O241     O      0.649215050000     0.981704450000     0.798227130000    -0.226275   
O242     O      0.050585155000     0.366003950000     0.186187970000     1.47291    
O242     O      0.050585155000     0.366003950000     0.686187970000     1.47291    
O242     O      0.050585155000     0.866003950000     0.186187970000     1.47291    
O242     O      0.050585155000     0.866003950000     0.686187970000     1.47291    
O242     O      0.550585155000     0.366003950000     0.186187970000     1.47291    
O242     O      0.550585155000     0.366003950000     0.686187970000     1.47291    
O242     O      0.550585155000     0.866003950000     0.186187970000     1.47291    
O242     O      0.550585155000     0.866003950000     0.686187970000     1.47291    
O243     O      0.091875075000     0.407107025000     0.167205950000    -3.13331    
O243     O      0.091875075000     0.407107025000     0.667205950000    -3.13331    
O243     O      0.091875075000     0.907107025000     0.167205950000    -3.13331    
O243     O      0.091875075000     0.907107025000     0.667205950000    -3.13331    
O243     O      0.591875075000     0.407107025000     0.167205950000    -3.13331    
O243     O      0.591875075000     0.407107025000     0.667205950000    -3.13331    
O243     O      0.591875075000     0.907107025000     0.167205950000    -3.13331    
O243     O      0.591875075000     0.907107025000     0.667205950000    -3.13331    
O244     O      0.006731480000     0.389781325000     0.151949800000    -1.10291    
O244     O      0.006731480000     0.389781325000     0.651949800000    -1.10291    
O244     O      0.006731480000     0.889781325000     0.151949800000    -1.10291    
O244     O      0.006731480000     0.889781325000     0.651949800000    -1.10291    
O244     O      0.506731480000     0.389781325000     0.151949800000    -1.10291    
O244     O      0.506731480000     0.389781325000     0.651949800000    -1.10291    
O244     O      0.506731480000     0.889781325000     0.151949800000    -1.10291    
O244     O      0.506731480000     0.889781325000     0.651949800000    -1.10291    
O245     O      0.468437500000     0.342924030000     0.136947930000     1.27621    
O245     O      0.468437500000     0.342924030000     0.636947930000     1.27621    
O245     O      0.468437500000     0.842924030000     0.136947930000     1.27621    
O245     O      0.468437500000     0.842924030000     0.636947930000     1.27621    
O245     O      0.968437500000     0.342924030000     0.136947930000     1.27621    
O245     O      0.968437500000     0.342924030000     0.636947930000     1.27621    
O245     O      0.968437500000     0.842924030000     0.136947930000     1.27621    
O245     O      0.968437500000     0.842924030000     0.636947930000     1.27621    
O246     O      0.088370600000     0.225746540000     0.129940780000     0.090227   
O246     O      0.088370600000     0.225746540000     0.629940780000     0.090227   
O246     O      0.088370600000     0.725746540000     0.129940780000     0.090227   
O246     O      0.088370600000     0.725746540000     0.629940780000     0.090227   
O246     O      0.588370600000     0.225746540000     0.129940780000     0.090227   
O246     O      0.588370600000     0.225746540000     0.629940780000     0.090227   
O246     O      0.588370600000     0.725746540000     0.129940780000     0.090227   
O246     O      0.588370600000     0.725746540000     0.629940780000     0.090227   
O247     O      0.118265065000     0.276982220000     0.113964670000     0.045751   
O247     O      0.118265065000     0.276982220000     0.613964670000     0.045751   
O247     O      0.118265065000     0.776982220000     0.113964670000     0.045751   
O247     O      0.118265065000     0.776982220000     0.613964670000     0.045751   
O247     O      0.618265065000     0.276982220000     0.113964670000     0.045751   
O247     O      0.618265065000     0.276982220000     0.613964670000     0.045751   
O247     O      0.618265065000     0.776982220000     0.113964670000     0.045751   
O247     O      0.618265065000     0.776982220000     0.613964670000     0.045751   
O248     O      0.239113865000     0.131473465000     0.124182210000     0.035758   
O248     O      0.239113865000     0.131473465000     0.624182210000     0.035758   
O248     O      0.239113865000     0.631473465000     0.124182210000     0.035758   
O248     O      0.239113865000     0.631473465000     0.624182210000     0.035758   
O248     O      0.739113865000     0.131473465000     0.124182210000     0.035758   
O248     O      0.739113865000     0.131473465000     0.624182210000     0.035758   
O248     O      0.739113865000     0.631473465000     0.124182210000     0.035758   
O248     O      0.739113865000     0.631473465000     0.624182210000     0.035758   
O249     O      0.216311770000     0.077467200000     0.142899410000     0.021163   
O249     O      0.216311770000     0.077467200000     0.642899410000     0.021163   
O249     O      0.216311770000     0.577467200000     0.142899410000     0.021163   
O249     O      0.216311770000     0.577467200000     0.642899410000     0.021163   
O249     O      0.716311770000     0.077467200000     0.142899410000     0.021163   
O249     O      0.716311770000     0.077467200000     0.642899410000     0.021163   
O249     O      0.716311770000     0.577467200000     0.142899410000     0.021163   
O249     O      0.716311770000     0.577467200000     0.642899410000     0.021163   
O250     O      0.355560100000     0.484374225000     0.136734410000     0.106904   
O250     O      0.355560100000     0.484374225000     0.636734410000     0.106904   
O250     O      0.355560100000     0.984374225000     0.136734410000     0.106904   
O250     O      0.355560100000     0.984374225000     0.636734410000     0.106904   
O250     O      0.855560100000     0.484374225000     0.136734410000     0.106904   
O250     O      0.855560100000     0.484374225000     0.636734410000     0.106904   
O250     O      0.855560100000     0.984374225000     0.136734410000     0.106904   
O250     O      0.855560100000     0.984374225000     0.636734410000     0.106904   
O251     O      0.373137450000     0.041127035000     0.157627570000     0.045759   
O251     O      0.373137450000     0.041127035000     0.657627570000     0.045759   
O251     O      0.373137450000     0.541127035000     0.157627570000     0.045759   
O251     O      0.373137450000     0.541127035000     0.657627570000     0.045759   
O251     O      0.873137450000     0.041127035000     0.157627570000     0.045759   
O251     O      0.873137450000     0.041127035000     0.657627570000     0.045759   
O251     O      0.873137450000     0.541127035000     0.157627570000     0.045759   
O251     O      0.873137450000     0.541127035000     0.657627570000     0.045759   


