data_sample_3_relaxed_charged

_audit_creation_method RASPA-1.0
_audit_creation_date 2026-2-5
_audit_author_name ''

_cell_length_a    15.2805
_cell_length_b    17.5331
_cell_length_c    18.0718
_cell_angle_alpha 89.8691
_cell_angle_beta  88.6934
_cell_angle_gamma 87.3378
_cell_volume      38681.7

_symmetry_cell_setting          triclinic
_symmetry_space_group_name_Hall 'P 1'
_symmetry_space_group_name_H-M  'P 1'
_symmetry_Int_Tables_number     1

_symmetry_equiv_pos_as_xyz 'x,y,z'

loop_
_atom_site_label
_atom_site_type_symbol
_atom_site_fract_x
_atom_site_fract_y
_atom_site_fract_z
_atom_site_charge
Zn0      Zn     0.455628400000     0.218188570000     0.015674650000     0.082449   
Zn0      Zn     0.455628400000     0.218188570000     0.515674650000     0.082449   
Zn0      Zn     0.455628400000     0.718188570000     0.015674650000     0.082449   
Zn0      Zn     0.455628400000     0.718188570000     0.515674650000     0.082449   
Zn0      Zn     0.955628400000     0.218188570000     0.015674650000     0.082449   
Zn0      Zn     0.955628400000     0.218188570000     0.515674650000     0.082449   
Zn0      Zn     0.955628400000     0.718188570000     0.015674650000     0.082449   
Zn0      Zn     0.955628400000     0.718188570000     0.515674650000     0.082449   
Zn1      Zn     0.377118500000     0.213738335000     0.467831520000     0.092028   
Zn1      Zn     0.377118500000     0.213738335000     0.967831520000     0.092028   
Zn1      Zn     0.377118500000     0.713738335000     0.467831520000     0.092028   
Zn1      Zn     0.377118500000     0.713738335000     0.967831520000     0.092028   
Zn1      Zn     0.877118500000     0.213738335000     0.467831520000     0.092028   
Zn1      Zn     0.877118500000     0.213738335000     0.967831520000     0.092028   
Zn1      Zn     0.877118500000     0.713738335000     0.467831520000     0.092028   
Zn1      Zn     0.877118500000     0.713738335000     0.967831520000     0.092028   
H2       H      0.496195050000     0.233395350000     0.334671700000     0.096866   
H2       H      0.496195050000     0.233395350000     0.834671700000     0.096866   
H2       H      0.496195050000     0.733395350000     0.334671700000     0.096866   
H2       H      0.496195050000     0.733395350000     0.834671700000     0.096866   
H2       H      0.996195050000     0.233395350000     0.334671700000     0.096866   
H2       H      0.996195050000     0.233395350000     0.834671700000     0.096866   
H2       H      0.996195050000     0.733395350000     0.334671700000     0.096866   
H2       H      0.996195050000     0.733395350000     0.834671700000     0.096866   
H3       H      0.351797050000     0.214787250000     0.103247655000     0.10097    
H3       H      0.351797050000     0.214787250000     0.603247655000     0.10097    
H3       H      0.351797050000     0.714787250000     0.103247655000     0.10097    
H3       H      0.351797050000     0.714787250000     0.603247655000     0.10097    
H3       H      0.851797050000     0.214787250000     0.103247655000     0.10097    
H3       H      0.851797050000     0.214787250000     0.603247655000     0.10097    
H3       H      0.851797050000     0.714787250000     0.103247655000     0.10097    
H3       H      0.851797050000     0.714787250000     0.603247655000     0.10097    
H4       H      0.492901600000     0.187088800000     0.373400950000     0.072079   
H4       H      0.492901600000     0.187088800000     0.873400950000     0.072079   
H4       H      0.492901600000     0.687088800000     0.373400950000     0.072079   
H4       H      0.492901600000     0.687088800000     0.873400950000     0.072079   
H4       H      0.992901600000     0.187088800000     0.373400950000     0.072079   
H4       H      0.992901600000     0.187088800000     0.873400950000     0.072079   
H4       H      0.992901600000     0.687088800000     0.373400950000     0.072079   
H4       H      0.992901600000     0.687088800000     0.873400950000     0.072079   
H5       H      0.331002150000     0.168669820000     0.340675650000     0.049443   
H5       H      0.331002150000     0.168669820000     0.840675650000     0.049443   
H5       H      0.331002150000     0.668669820000     0.340675650000     0.049443   
H5       H      0.331002150000     0.668669820000     0.840675650000     0.049443   
H5       H      0.831002150000     0.168669820000     0.340675650000     0.049443   
H5       H      0.831002150000     0.168669820000     0.840675650000     0.049443   
H5       H      0.831002150000     0.668669820000     0.340675650000     0.049443   
H5       H      0.831002150000     0.668669820000     0.840675650000     0.049443   
H6       H      0.000354050000     0.264569450000     0.144335030000     0.708349   
H6       H      0.000354050000     0.264569450000     0.644335030000     0.708349   
H6       H      0.000354050000     0.764569450000     0.144335030000     0.708349   
H6       H      0.000354050000     0.764569450000     0.644335030000     0.708349   
H6       H      0.500354050000     0.264569450000     0.144335030000     0.708349   
H6       H      0.500354050000     0.264569450000     0.644335030000     0.708349   
H6       H      0.500354050000     0.764569450000     0.144335030000     0.708349   
H6       H      0.500354050000     0.764569450000     0.644335030000     0.708349   
H7       H      0.350201350000     0.188150315000     0.277160150000     0.716875   
H7       H      0.350201350000     0.188150315000     0.777160150000     0.716875   
H7       H      0.350201350000     0.688150315000     0.277160150000     0.716875   
H7       H      0.350201350000     0.688150315000     0.777160150000     0.716875   
H7       H      0.850201350000     0.188150315000     0.277160150000     0.716875   
H7       H      0.850201350000     0.188150315000     0.777160150000     0.716875   
H7       H      0.850201350000     0.688150315000     0.277160150000     0.716875   
H7       H      0.850201350000     0.688150315000     0.777160150000     0.716875   
H8       H      0.481949250000     0.242238270000     0.207071035000     0.24873    
H8       H      0.481949250000     0.242238270000     0.707071035000     0.24873    
H8       H      0.481949250000     0.742238270000     0.207071035000     0.24873    
H8       H      0.481949250000     0.742238270000     0.707071035000     0.24873    
H8       H      0.981949250000     0.242238270000     0.207071035000     0.24873    
H8       H      0.981949250000     0.242238270000     0.707071035000     0.24873    
H8       H      0.981949250000     0.742238270000     0.207071035000     0.24873    
H8       H      0.981949250000     0.742238270000     0.707071035000     0.24873    
H9       H      0.322863730000     0.228374500000     0.156216300000     0.218893   
H9       H      0.322863730000     0.228374500000     0.656216300000     0.218893   
H9       H      0.322863730000     0.728374500000     0.156216300000     0.218893   
H9       H      0.322863730000     0.728374500000     0.656216300000     0.218893   
H9       H      0.822863730000     0.228374500000     0.156216300000     0.218893   
H9       H      0.822863730000     0.228374500000     0.656216300000     0.218893   
H9       H      0.822863730000     0.728374500000     0.156216300000     0.218893   
H9       H      0.822863730000     0.728374500000     0.656216300000     0.218893   
H10      H      0.236510680000     0.163094210000     0.462119400000     0.341973   
H10      H      0.236510680000     0.163094210000     0.962119400000     0.341973   
H10      H      0.236510680000     0.663094210000     0.462119400000     0.341973   
H10      H      0.236510680000     0.663094210000     0.962119400000     0.341973   
H10      H      0.736510680000     0.163094210000     0.462119400000     0.341973   
H10      H      0.736510680000     0.163094210000     0.962119400000     0.341973   
H10      H      0.736510680000     0.663094210000     0.462119400000     0.341973   
H10      H      0.736510680000     0.663094210000     0.962119400000     0.341973   
H11      H      0.090198835000     0.243846030000     0.014966070000     0.362666   
H11      H      0.090198835000     0.243846030000     0.514966070000     0.362666   
H11      H      0.090198835000     0.743846030000     0.014966070000     0.362666   
H11      H      0.090198835000     0.743846030000     0.514966070000     0.362666   
H11      H      0.590198835000     0.243846030000     0.014966070000     0.362666   
H11      H      0.590198835000     0.243846030000     0.514966070000     0.362666   
H11      H      0.590198835000     0.743846030000     0.014966070000     0.362666   
H11      H      0.590198835000     0.743846030000     0.514966070000     0.362666   
H12      H      0.166735725000     0.137028620000     0.445877150000    -0.362818   
H12      H      0.166735725000     0.137028620000     0.945877150000    -0.362818   
H12      H      0.166735725000     0.637028620000     0.445877150000    -0.362818   
H12      H      0.166735725000     0.637028620000     0.945877150000    -0.362818   
H12      H      0.666735725000     0.137028620000     0.445877150000    -0.362818   
H12      H      0.666735725000     0.137028620000     0.945877150000    -0.362818   
H12      H      0.666735725000     0.637028620000     0.445877150000    -0.362818   
H12      H      0.666735725000     0.637028620000     0.945877150000    -0.362818   
H13      H      0.157812415000     0.267313150000     0.033319535000    -0.34396    
H13      H      0.157812415000     0.267313150000     0.533319535000    -0.34396    
H13      H      0.157812415000     0.767313150000     0.033319535000    -0.34396    
H13      H      0.157812415000     0.767313150000     0.533319535000    -0.34396    
H13      H      0.657812415000     0.267313150000     0.033319535000    -0.34396    
H13      H      0.657812415000     0.267313150000     0.533319535000    -0.34396    
H13      H      0.657812415000     0.767313150000     0.033319535000    -0.34396    
H13      H      0.657812415000     0.767313150000     0.533319535000    -0.34396    
H14      H      0.279474765000     0.191642760000     0.061702015000     0.471257   
H14      H      0.279474765000     0.191642760000     0.561702015000     0.471257   
H14      H      0.279474765000     0.691642760000     0.061702015000     0.471257   
H14      H      0.279474765000     0.691642760000     0.561702015000     0.471257   
H14      H      0.779474765000     0.191642760000     0.061702015000     0.471257   
H14      H      0.779474765000     0.191642760000     0.561702015000     0.471257   
H14      H      0.779474765000     0.691642760000     0.061702015000     0.471257   
H14      H      0.779474765000     0.691642760000     0.561702015000     0.471257   
H15      H      0.048111295000     0.219745115000     0.416813580000     0.354191   
H15      H      0.048111295000     0.219745115000     0.916813580000     0.354191   
H15      H      0.048111295000     0.719745115000     0.416813580000     0.354191   
H15      H      0.048111295000     0.719745115000     0.916813580000     0.354191   
H15      H      0.548111295000     0.219745115000     0.416813580000     0.354191   
H15      H      0.548111295000     0.219745115000     0.916813580000     0.354191   
H15      H      0.548111295000     0.719745115000     0.416813580000     0.354191   
H15      H      0.548111295000     0.719745115000     0.916813580000     0.354191   
C16      C      0.409927150000     0.143675090000     0.493374900000     0.442992   
C16      C      0.409927150000     0.143675090000     0.993374900000     0.442992   
C16      C      0.409927150000     0.643675090000     0.493374900000     0.442992   
C16      C      0.409927150000     0.643675090000     0.993374900000     0.442992   
C16      C      0.909927150000     0.143675090000     0.493374900000     0.442992   
C16      C      0.909927150000     0.143675090000     0.993374900000     0.442992   
C16      C      0.909927150000     0.643675090000     0.493374900000     0.442992   
C16      C      0.909927150000     0.643675090000     0.993374900000     0.442992   
C17      C      0.422257065000     0.288906575000     0.490934350000     0.187157   
C17      C      0.422257065000     0.288906575000     0.990934350000     0.187157   
C17      C      0.422257065000     0.788906575000     0.490934350000     0.187157   
C17      C      0.422257065000     0.788906575000     0.990934350000     0.187157   
C17      C      0.922257065000     0.288906575000     0.490934350000     0.187157   
C17      C      0.922257065000     0.288906575000     0.990934350000     0.187157   
C17      C      0.922257065000     0.788906575000     0.490934350000     0.187157   
C17      C      0.922257065000     0.788906575000     0.990934350000     0.187157   
C18      C      0.385256380000     0.391639380000     0.480753650000     0.206437   
C18      C      0.385256380000     0.391639380000     0.980753650000     0.206437   
C18      C      0.385256380000     0.891639380000     0.480753650000     0.206437   
C18      C      0.385256380000     0.891639380000     0.980753650000     0.206437   
C18      C      0.885256380000     0.391639380000     0.480753650000     0.206437   
C18      C      0.885256380000     0.391639380000     0.980753650000     0.206437   
C18      C      0.885256380000     0.891639380000     0.480753650000     0.206437   
C18      C      0.885256380000     0.891639380000     0.980753650000     0.206437   
C19      C      0.421515350000     0.042511880000     0.025267185000    -0.17248    
C19      C      0.421515350000     0.042511880000     0.525267185000    -0.17248    
C19      C      0.421515350000     0.542511880000     0.025267185000    -0.17248    
C19      C      0.421515350000     0.542511880000     0.525267185000    -0.17248    
C19      C      0.921515350000     0.042511880000     0.025267185000    -0.17248    
C19      C      0.921515350000     0.042511880000     0.525267185000    -0.17248    
C19      C      0.921515350000     0.542511880000     0.025267185000    -0.17248    
C19      C      0.921515350000     0.542511880000     0.525267185000    -0.17248    
C20      C      0.384673180000     0.352128900000     0.480977350000    -0.039294   
C20      C      0.384673180000     0.352128900000     0.980977350000    -0.039294   
C20      C      0.384673180000     0.852128900000     0.480977350000    -0.039294   
C20      C      0.384673180000     0.852128900000     0.980977350000    -0.039294   
C20      C      0.884673180000     0.352128900000     0.480977350000    -0.039294   
C20      C      0.884673180000     0.352128900000     0.980977350000    -0.039294   
C20      C      0.884673180000     0.852128900000     0.480977350000    -0.039294   
C20      C      0.884673180000     0.852128900000     0.980977350000    -0.039294   
C21      C      0.417836250000     0.082088470000     0.025985955000     0.072617   
C21      C      0.417836250000     0.082088470000     0.525985955000     0.072617   
C21      C      0.417836250000     0.582088470000     0.025985955000     0.072617   
C21      C      0.417836250000     0.582088470000     0.525985955000     0.072617   
C21      C      0.917836250000     0.082088470000     0.025985955000     0.072617   
C21      C      0.917836250000     0.082088470000     0.525985955000     0.072617   
C21      C      0.917836250000     0.582088470000     0.025985955000     0.072617   
C21      C      0.917836250000     0.582088470000     0.525985955000     0.072617   
C22      C      0.422717800000     0.330306000000     0.489906600000     0.107076   
C22      C      0.422717800000     0.330306000000     0.989906600000     0.107076   
C22      C      0.422717800000     0.830306000000     0.489906600000     0.107076   
C22      C      0.422717800000     0.830306000000     0.989906600000     0.107076   
C22      C      0.922717800000     0.330306000000     0.489906600000     0.107076   
C22      C      0.922717800000     0.330306000000     0.989906600000     0.107076   
C22      C      0.922717800000     0.830306000000     0.489906600000     0.107076   
C22      C      0.922717800000     0.830306000000     0.989906600000     0.107076   
C23      C      0.412632970000     0.102429805000     0.492767335000     0.078514   
C23      C      0.412632970000     0.102429805000     0.992767335000     0.078514   
C23      C      0.412632970000     0.602429805000     0.492767335000     0.078514   
C23      C      0.412632970000     0.602429805000     0.992767335000     0.078514   
C23      C      0.912632970000     0.102429805000     0.492767335000     0.078514   
C23      C      0.912632970000     0.102429805000     0.992767335000     0.078514   
C23      C      0.912632970000     0.602429805000     0.492767335000     0.078514   
C23      C      0.912632970000     0.602429805000     0.992767335000     0.078514   
C24      C      0.461536850000     0.348472415000     0.497838900000    -0.092539   
C24      C      0.461536850000     0.348472415000     0.997838900000    -0.092539   
C24      C      0.461536850000     0.848472415000     0.497838900000    -0.092539   
C24      C      0.461536850000     0.848472415000     0.997838900000    -0.092539   
C24      C      0.961536850000     0.348472415000     0.497838900000    -0.092539   
C24      C      0.961536850000     0.348472415000     0.997838900000    -0.092539   
C24      C      0.961536850000     0.848472415000     0.497838900000    -0.092539   
C24      C      0.961536850000     0.848472415000     0.997838900000    -0.092539   
C25      C      0.411696075000     0.083105030000     0.458892050000    -0.075497   
C25      C      0.411696075000     0.083105030000     0.958892050000    -0.075497   
C25      C      0.411696075000     0.583105030000     0.458892050000    -0.075497   
C25      C      0.411696075000     0.583105030000     0.958892050000    -0.075497   
C25      C      0.911696075000     0.083105030000     0.458892050000    -0.075497   
C25      C      0.911696075000     0.083105030000     0.958892050000    -0.075497   
C25      C      0.911696075000     0.583105030000     0.458892050000    -0.075497   
C25      C      0.911696075000     0.583105030000     0.958892050000    -0.075497   
C26      C      0.461901220000     0.387993350000     0.497567535000     0.102209   
C26      C      0.461901220000     0.387993350000     0.997567535000     0.102209   
C26      C      0.461901220000     0.887993350000     0.497567535000     0.102209   
C26      C      0.461901220000     0.887993350000     0.997567535000     0.102209   
C26      C      0.961901220000     0.387993350000     0.497567535000     0.102209   
C26      C      0.961901220000     0.387993350000     0.997567535000     0.102209   
C26      C      0.961901220000     0.887993350000     0.497567535000     0.102209   
C26      C      0.961901220000     0.887993350000     0.997567535000     0.102209   
C27      C      0.423674000000     0.449470600000     0.489992530000     0.097024   
C27      C      0.423674000000     0.449470600000     0.989992530000     0.097024   
C27      C      0.423674000000     0.949470600000     0.489992530000     0.097024   
C27      C      0.423674000000     0.949470600000     0.989992530000     0.097024   
C27      C      0.923674000000     0.449470600000     0.489992530000     0.097024   
C27      C      0.923674000000     0.449470600000     0.989992530000     0.097024   
C27      C      0.923674000000     0.949470600000     0.489992530000     0.097024   
C27      C      0.923674000000     0.949470600000     0.989992530000     0.097024   
C28      C      0.415438500000     0.043571355000     0.458262200000     0.048148   
C28      C      0.415438500000     0.043571355000     0.958262200000     0.048148   
C28      C      0.415438500000     0.543571355000     0.458262200000     0.048148   
C28      C      0.415438500000     0.543571355000     0.958262200000     0.048148   
C28      C      0.915438500000     0.043571355000     0.458262200000     0.048148   
C28      C      0.915438500000     0.043571355000     0.958262200000     0.048148   
C28      C      0.915438500000     0.543571355000     0.458262200000     0.048148   
C28      C      0.915438500000     0.543571355000     0.958262200000     0.048148   
C29      C      0.423740850000     0.409307200000     0.489243800000     0.047132   
C29      C      0.423740850000     0.409307200000     0.989243800000     0.047132   
C29      C      0.423740850000     0.909307200000     0.489243800000     0.047132   
C29      C      0.423740850000     0.909307200000     0.989243800000     0.047132   
C29      C      0.923740850000     0.409307200000     0.489243800000     0.047132   
C29      C      0.923740850000     0.409307200000     0.989243800000     0.047132   
C29      C      0.923740850000     0.909307200000     0.489243800000     0.047132   
C29      C      0.923740850000     0.909307200000     0.989243800000     0.047132   
C30      C      0.420259800000     0.023526250000     0.491419970000     0.177418   
C30      C      0.420259800000     0.023526250000     0.991419970000     0.177418   
C30      C      0.420259800000     0.523526250000     0.491419970000     0.177418   
C30      C      0.420259800000     0.523526250000     0.991419970000     0.177418   
C30      C      0.920259800000     0.023526250000     0.491419970000     0.177418   
C30      C      0.920259800000     0.023526250000     0.991419970000     0.177418   
C30      C      0.920259800000     0.523526250000     0.491419970000     0.177418   
C30      C      0.920259800000     0.523526250000     0.991419970000     0.177418   
C31      C      0.422651500000     0.483321350000     0.490715980000     0.176979   
C31      C      0.422651500000     0.483321350000     0.990715980000     0.176979   
C31      C      0.422651500000     0.983321350000     0.490715980000     0.176979   
C31      C      0.422651500000     0.983321350000     0.990715980000     0.176979   
C31      C      0.922651500000     0.483321350000     0.490715980000     0.176979   
C31      C      0.922651500000     0.483321350000     0.990715980000     0.176979   
C31      C      0.922651500000     0.983321350000     0.490715980000     0.176979   
C31      C      0.922651500000     0.983321350000     0.990715980000     0.176979   
C32      C      0.468272150000     0.253869920000     0.150158300000    -0.043783   
C32      C      0.468272150000     0.253869920000     0.650158300000    -0.043783   
C32      C      0.468272150000     0.753869920000     0.150158300000    -0.043783   
C32      C      0.468272150000     0.753869920000     0.650158300000    -0.043783   
C32      C      0.968272150000     0.253869920000     0.150158300000    -0.043783   
C32      C      0.968272150000     0.253869920000     0.650158300000    -0.043783   
C32      C      0.968272150000     0.753869920000     0.150158300000    -0.043783   
C32      C      0.968272150000     0.753869920000     0.650158300000    -0.043783   
C33      C      0.363200500000     0.179005385000     0.334623000000    -0.012701   
C33      C      0.363200500000     0.179005385000     0.834623000000    -0.012701   
C33      C      0.363200500000     0.679005385000     0.334623000000    -0.012701   
C33      C      0.363200500000     0.679005385000     0.834623000000    -0.012701   
C33      C      0.863200500000     0.179005385000     0.334623000000    -0.012701   
C33      C      0.863200500000     0.179005385000     0.834623000000    -0.012701   
C33      C      0.863200500000     0.679005385000     0.334623000000    -0.012701   
C33      C      0.863200500000     0.679005385000     0.834623000000    -0.012701   
C34      C      0.457612450000     0.241103990000     0.185860070000     0.122953   
C34      C      0.457612450000     0.241103990000     0.685860070000     0.122953   
C34      C      0.457612450000     0.741103990000     0.185860070000     0.122953   
C34      C      0.457612450000     0.741103990000     0.685860070000     0.122953   
C34      C      0.957612450000     0.241103990000     0.185860070000     0.122953   
C34      C      0.957612450000     0.241103990000     0.685860070000     0.122953   
C34      C      0.957612450000     0.741103990000     0.185860070000     0.122953   
C34      C      0.957612450000     0.741103990000     0.685860070000     0.122953   
C35      C      0.374309870000     0.190128150000     0.298466700000    -0.073646   
C35      C      0.374309870000     0.190128150000     0.798466700000    -0.073646   
C35      C      0.374309870000     0.690128150000     0.298466700000    -0.073646   
C35      C      0.374309870000     0.690128150000     0.798466700000    -0.073646   
C35      C      0.874309870000     0.190128150000     0.298466700000    -0.073646   
C35      C      0.874309870000     0.190128150000     0.798466700000    -0.073646   
C35      C      0.874309870000     0.690128150000     0.298466700000    -0.073646   
C35      C      0.874309870000     0.690128150000     0.798466700000    -0.073646   
C36      C      0.415641785000     0.227468165000     0.193703370000    -0.032433   
C36      C      0.415641785000     0.227468165000     0.693703370000    -0.032433   
C36      C      0.415641785000     0.727468165000     0.193703370000    -0.032433   
C36      C      0.415641785000     0.727468165000     0.693703370000    -0.032433   
C36      C      0.915641785000     0.227468165000     0.193703370000    -0.032433   
C36      C      0.915641785000     0.227468165000     0.693703370000    -0.032433   
C36      C      0.915641785000     0.727468165000     0.193703370000    -0.032433   
C36      C      0.915641785000     0.727468165000     0.693703370000    -0.032433   
C37      C      0.416128150000     0.203976365000     0.290490270000    -0.0824     
C37      C      0.416128150000     0.203976365000     0.790490270000    -0.0824     
C37      C      0.416128150000     0.703976365000     0.290490270000    -0.0824     
C37      C      0.416128150000     0.703976365000     0.790490270000    -0.0824     
C37      C      0.916128150000     0.203976365000     0.290490270000    -0.0824     
C37      C      0.916128150000     0.203976365000     0.790490270000    -0.0824     
C37      C      0.916128150000     0.703976365000     0.290490270000    -0.0824     
C37      C      0.916128150000     0.703976365000     0.790490270000    -0.0824     
C38      C      0.385374785000     0.227124750000     0.165063800000    -0.070167   
C38      C      0.385374785000     0.227124750000     0.665063800000    -0.070167   
C38      C      0.385374785000     0.727124750000     0.165063800000    -0.070167   
C38      C      0.385374785000     0.727124750000     0.665063800000    -0.070167   
C38      C      0.885374785000     0.227124750000     0.165063800000    -0.070167   
C38      C      0.885374785000     0.227124750000     0.665063800000    -0.070167   
C38      C      0.885374785000     0.727124750000     0.165063800000    -0.070167   
C38      C      0.885374785000     0.727124750000     0.665063800000    -0.070167   
C39      C      0.445753000000     0.206221075000     0.319431600000     0.121268   
C39      C      0.445753000000     0.206221075000     0.819431600000     0.121268   
C39      C      0.445753000000     0.706221075000     0.319431600000     0.121268   
C39      C      0.445753000000     0.706221075000     0.819431600000     0.121268   
C39      C      0.945753000000     0.206221075000     0.319431600000     0.121268   
C39      C      0.945753000000     0.206221075000     0.819431600000     0.121268   
C39      C      0.945753000000     0.706221075000     0.319431600000     0.121268   
C39      C      0.945753000000     0.706221075000     0.819431600000     0.121268   
C40      C      0.398249565000     0.238859415000     0.128772380000     0.133431   
C40      C      0.398249565000     0.238859415000     0.628772380000     0.133431   
C40      C      0.398249565000     0.738859415000     0.128772380000     0.133431   
C40      C      0.398249565000     0.738859415000     0.628772380000     0.133431   
C40      C      0.898249565000     0.238859415000     0.128772380000     0.133431   
C40      C      0.898249565000     0.238859415000     0.628772380000     0.133431   
C40      C      0.898249565000     0.738859415000     0.128772380000     0.133431   
C40      C      0.898249565000     0.738859415000     0.628772380000     0.133431   
C41      C      0.433792150000     0.192925450000     0.355414600000     0.011869   
C41      C      0.433792150000     0.192925450000     0.855414600000     0.011869   
C41      C      0.433792150000     0.692925450000     0.355414600000     0.011869   
C41      C      0.433792150000     0.692925450000     0.855414600000     0.011869   
C41      C      0.933792150000     0.192925450000     0.355414600000     0.011869   
C41      C      0.933792150000     0.192925450000     0.855414600000     0.011869   
C41      C      0.933792150000     0.692925450000     0.355414600000     0.011869   
C41      C      0.933792150000     0.692925450000     0.855414600000     0.011869   
C42      C      0.322166115000     0.202421380000     0.478940850000     0.023801   
C42      C      0.322166115000     0.202421380000     0.978940850000     0.023801   
C42      C      0.322166115000     0.702421380000     0.478940850000     0.023801   
C42      C      0.322166115000     0.702421380000     0.978940850000     0.023801   
C42      C      0.822166115000     0.202421380000     0.478940850000     0.023801   
C42      C      0.822166115000     0.202421380000     0.978940850000     0.023801   
C42      C      0.822166115000     0.702421380000     0.478940850000     0.023801   
C42      C      0.822166115000     0.702421380000     0.978940850000     0.023801   
C43      C      0.006772735000     0.216218200000     0.001143755000    -0.021544   
C43      C      0.006772735000     0.216218200000     0.501143755000    -0.021544   
C43      C      0.006772735000     0.716218200000     0.001143755000    -0.021544   
C43      C      0.006772735000     0.716218200000     0.501143755000    -0.021544   
C43      C      0.506772735000     0.216218200000     0.001143755000    -0.021544   
C43      C      0.506772735000     0.216218200000     0.501143755000    -0.021544   
C43      C      0.506772735000     0.716218200000     0.001143755000    -0.021544   
C43      C      0.506772735000     0.716218200000     0.501143755000    -0.021544   
C44      C      0.286507700000     0.205423850000     0.002872885000     0.018379   
C44      C      0.286507700000     0.205423850000     0.502872885000     0.018379   
C44      C      0.286507700000     0.705423850000     0.002872885000     0.018379   
C44      C      0.286507700000     0.705423850000     0.502872885000     0.018379   
C44      C      0.786507700000     0.205423850000     0.002872885000     0.018379   
C44      C      0.786507700000     0.205423850000     0.502872885000     0.018379   
C44      C      0.786507700000     0.705423850000     0.002872885000     0.018379   
C44      C      0.786507700000     0.705423850000     0.502872885000     0.018379   
C45      C      0.241680650000     0.213790750000     0.494799200000     0.041831   
C45      C      0.241680650000     0.213790750000     0.994799200000     0.041831   
C45      C      0.241680650000     0.713790750000     0.494799200000     0.041831   
C45      C      0.241680650000     0.713790750000     0.994799200000     0.041831   
C45      C      0.741680650000     0.213790750000     0.494799200000     0.041831   
C45      C      0.741680650000     0.213790750000     0.994799200000     0.041831   
C45      C      0.741680650000     0.713790750000     0.494799200000     0.041831   
C45      C      0.741680650000     0.713790750000     0.994799200000     0.041831   
C46      C      0.083297765000     0.192988070000     0.482787400000     0.001691   
C46      C      0.083297765000     0.192988070000     0.982787400000     0.001691   
C46      C      0.083297765000     0.692988070000     0.482787400000     0.001691   
C46      C      0.083297765000     0.692988070000     0.982787400000     0.001691   
C46      C      0.583297765000     0.192988070000     0.482787400000     0.001691   
C46      C      0.583297765000     0.192988070000     0.982787400000     0.001691   
C46      C      0.583297765000     0.692988070000     0.482787400000     0.001691   
C46      C      0.583297765000     0.692988070000     0.982787400000     0.001691   
C47      C      0.150060085000     0.159915430000     0.461522500000     0.081904   
C47      C      0.150060085000     0.159915430000     0.961522500000     0.081904   
C47      C      0.150060085000     0.659915430000     0.461522500000     0.081904   
C47      C      0.150060085000     0.659915430000     0.961522500000     0.081904   
C47      C      0.650060085000     0.159915430000     0.461522500000     0.081904   
C47      C      0.650060085000     0.159915430000     0.961522500000     0.081904   
C47      C      0.650060085000     0.659915430000     0.461522500000     0.081904   
C47      C      0.650060085000     0.659915430000     0.961522500000     0.081904   
C48      C      0.174728470000     0.245109850000     0.017010095000    -0.18942    
C48      C      0.174728470000     0.245109850000     0.517010095000    -0.18942    
C48      C      0.174728470000     0.745109850000     0.017010095000    -0.18942    
C48      C      0.174728470000     0.745109850000     0.517010095000    -0.18942    
C48      C      0.674728470000     0.245109850000     0.017010095000    -0.18942    
C48      C      0.674728470000     0.245109850000     0.517010095000    -0.18942    
C48      C      0.674728470000     0.745109850000     0.017010095000    -0.18942    
C48      C      0.674728470000     0.745109850000     0.517010095000    -0.18942    
C49      C      0.104528255000     0.162641350000     0.463149370000    -0.2653     
C49      C      0.104528255000     0.162641350000     0.963149370000    -0.2653     
C49      C      0.104528255000     0.662641350000     0.463149370000    -0.2653     
C49      C      0.104528255000     0.662641350000     0.963149370000    -0.2653     
C49      C      0.604528255000     0.162641350000     0.463149370000    -0.2653     
C49      C      0.604528255000     0.162641350000     0.963149370000    -0.2653     
C49      C      0.604528255000     0.662641350000     0.463149370000    -0.2653     
C49      C      0.604528255000     0.662641350000     0.963149370000    -0.2653     
C50      C      0.219762460000     0.244207980000     0.013772605000    -0.249311   
C50      C      0.219762460000     0.244207980000     0.513772605000    -0.249311   
C50      C      0.219762460000     0.744207980000     0.013772605000    -0.249311   
C50      C      0.219762460000     0.744207980000     0.513772605000    -0.249311   
C50      C      0.719762460000     0.244207980000     0.013772605000    -0.249311   
C50      C      0.719762460000     0.244207980000     0.513772605000    -0.249311   
C50      C      0.719762460000     0.744207980000     0.013772605000    -0.249311   
C50      C      0.719762460000     0.744207980000     0.513772605000    -0.249311   
C51      C      0.106825365000     0.219321385000     0.001689850000    -0.148739   
C51      C      0.106825365000     0.219321385000     0.501689850000    -0.148739   
C51      C      0.106825365000     0.719321385000     0.001689850000    -0.148739   
C51      C      0.106825365000     0.719321385000     0.501689850000    -0.148739   
C51      C      0.606825365000     0.219321385000     0.001689850000    -0.148739   
C51      C      0.606825365000     0.219321385000     0.501689850000    -0.148739   
C51      C      0.606825365000     0.719321385000     0.001689850000    -0.148739   
C51      C      0.606825365000     0.719321385000     0.501689850000    -0.148739   
C52      C      0.038937530000     0.204734760000     0.475327500000    -0.112514   
C52      C      0.038937530000     0.204734760000     0.975327500000    -0.112514   
C52      C      0.038937530000     0.704734760000     0.475327500000    -0.112514   
C52      C      0.038937530000     0.704734760000     0.975327500000    -0.112514   
C52      C      0.538937530000     0.204734760000     0.475327500000    -0.112514   
C52      C      0.538937530000     0.204734760000     0.975327500000    -0.112514   
C52      C      0.538937530000     0.704734760000     0.475327500000    -0.112514   
C52      C      0.538937530000     0.704734760000     0.975327500000    -0.112514   
C53      C      0.218978735000     0.186416500000     0.476398250000    -0.103409   
C53      C      0.218978735000     0.186416500000     0.976398250000    -0.103409   
C53      C      0.218978735000     0.686416500000     0.476398250000    -0.103409   
C53      C      0.218978735000     0.686416500000     0.976398250000    -0.103409   
C53      C      0.718978735000     0.186416500000     0.476398250000    -0.103409   
C53      C      0.718978735000     0.186416500000     0.976398250000    -0.103409   
C53      C      0.718978735000     0.686416500000     0.476398250000    -0.103409   
C53      C      0.718978735000     0.686416500000     0.976398250000    -0.103409   
C54      C      0.151729510000     0.217124015000     0.499713200000    -0.057083   
C54      C      0.151729510000     0.217124015000     0.999713200000    -0.057083   
C54      C      0.151729510000     0.717124015000     0.499713200000    -0.057083   
C54      C      0.151729510000     0.717124015000     0.999713200000    -0.057083   
C54      C      0.651729510000     0.217124015000     0.499713200000    -0.057083   
C54      C      0.651729510000     0.217124015000     0.999713200000    -0.057083   
C54      C      0.651729510000     0.717124015000     0.499713200000    -0.057083   
C54      C      0.651729510000     0.717124015000     0.999713200000    -0.057083   
C55      C      0.173725260000     0.187728400000     0.478862350000    -0.057134   
C55      C      0.173725260000     0.187728400000     0.978862350000    -0.057134   
C55      C      0.173725260000     0.687728400000     0.478862350000    -0.057134   
C55      C      0.173725260000     0.687728400000     0.978862350000    -0.057134   
C55      C      0.673725260000     0.187728400000     0.478862350000    -0.057134   
C55      C      0.673725260000     0.187728400000     0.978862350000    -0.057134   
C55      C      0.673725260000     0.687728400000     0.478862350000    -0.057134   
C55      C      0.673725260000     0.687728400000     0.978862350000    -0.057134   
C56      C      0.300049250000     0.197926270000     0.037979605000    -0.082723   
C56      C      0.300049250000     0.197926270000     0.537979605000    -0.082723   
C56      C      0.300049250000     0.697926270000     0.037979605000    -0.082723   
C56      C      0.300049250000     0.697926270000     0.537979605000    -0.082723   
C56      C      0.800049250000     0.197926270000     0.037979605000    -0.082723   
C56      C      0.800049250000     0.197926270000     0.537979605000    -0.082723   
C56      C      0.800049250000     0.697926270000     0.037979605000    -0.082723   
C56      C      0.800049250000     0.697926270000     0.537979605000    -0.082723   
C57      C      0.027944110000     0.220166000000     0.441691875000    -0.34843    
C57      C      0.027944110000     0.220166000000     0.941691875000    -0.34843    
C57      C      0.027944110000     0.720166000000     0.441691875000    -0.34843    
C57      C      0.027944110000     0.720166000000     0.941691875000    -0.34843    
C57      C      0.527944110000     0.220166000000     0.441691875000    -0.34843    
C57      C      0.527944110000     0.220166000000     0.941691875000    -0.34843    
C57      C      0.527944110000     0.720166000000     0.441691875000    -0.34843    
C57      C      0.527944110000     0.720166000000     0.941691875000    -0.34843    
Br58     Br     0.072504660000     0.126312315000     0.436355680000    -0.259875   
Br58     Br     0.072504660000     0.126312315000     0.936355680000    -0.259875   
Br58     Br     0.072504660000     0.626312315000     0.436355680000    -0.259875   
Br58     Br     0.072504660000     0.626312315000     0.936355680000    -0.259875   
Br58     Br     0.572504660000     0.126312315000     0.436355680000    -0.259875   
Br58     Br     0.572504660000     0.126312315000     0.936355680000    -0.259875   
Br58     Br     0.572504660000     0.626312315000     0.436355680000    -0.259875   
Br58     Br     0.572504660000     0.626312315000     0.936355680000    -0.259875   
Br59     Br     0.318499300000     0.185010790000     0.429167750000    -0.037719   
Br59     Br     0.318499300000     0.185010790000     0.929167750000    -0.037719   
Br59     Br     0.318499300000     0.685010790000     0.429167750000    -0.037719   
Br59     Br     0.318499300000     0.685010790000     0.929167750000    -0.037719   
Br59     Br     0.818499300000     0.185010790000     0.429167750000    -0.037719   
Br59     Br     0.818499300000     0.185010790000     0.929167750000    -0.037719   
Br59     Br     0.818499300000     0.685010790000     0.429167750000    -0.037719   
Br59     Br     0.818499300000     0.685010790000     0.929167750000    -0.037719   
Br60     Br     0.015666730000     0.217093450000     0.053472460000    -0.470536   
Br60     Br     0.015666730000     0.217093450000     0.553472460000    -0.470536   
Br60     Br     0.015666730000     0.717093450000     0.053472460000    -0.470536   
Br60     Br     0.015666730000     0.717093450000     0.553472460000    -0.470536   
Br60     Br     0.515666730000     0.217093450000     0.053472460000    -0.470536   
Br60     Br     0.515666730000     0.217093450000     0.553472460000    -0.470536   
Br60     Br     0.515666730000     0.717093450000     0.053472460000    -0.470536   
Br60     Br     0.515666730000     0.717093450000     0.553472460000    -0.470536   
Br61     Br     0.250213150000     0.284563300000     0.036285160000    -0.574817   
Br61     Br     0.250213150000     0.284563300000     0.536285160000    -0.574817   
Br61     Br     0.250213150000     0.784563300000     0.036285160000    -0.574817   
Br61     Br     0.250213150000     0.784563300000     0.536285160000    -0.574817   
Br61     Br     0.750213150000     0.284563300000     0.036285160000    -0.574817   
Br61     Br     0.750213150000     0.284563300000     0.536285160000    -0.574817   
Br61     Br     0.750213150000     0.784563300000     0.036285160000    -0.574817   
Br61     Br     0.750213150000     0.784563300000     0.536285160000    -0.574817   
N62      N      0.438843400000     0.252613450000     0.122567170000    -0.575233   
N62      N      0.438843400000     0.252613450000     0.622567170000    -0.575233   
N62      N      0.438843400000     0.752613450000     0.122567170000    -0.575233   
N62      N      0.438843400000     0.752613450000     0.622567170000    -0.575233   
N62      N      0.938843400000     0.252613450000     0.122567170000    -0.575233   
N62      N      0.938843400000     0.252613450000     0.622567170000    -0.575233   
N62      N      0.938843400000     0.752613450000     0.122567170000    -0.575233   
N62      N      0.938843400000     0.752613450000     0.622567170000    -0.575233   
N63      N      0.392648430000     0.180637300000     0.362186200000    -0.4839     
N63      N      0.392648430000     0.180637300000     0.862186200000    -0.4839     
N63      N      0.392648430000     0.680637300000     0.362186200000    -0.4839     
N63      N      0.392648430000     0.680637300000     0.862186200000    -0.4839     
N63      N      0.892648430000     0.180637300000     0.362186200000    -0.4839     
N63      N      0.892648430000     0.180637300000     0.862186200000    -0.4839     
N63      N      0.892648430000     0.680637300000     0.362186200000    -0.4839     
N63      N      0.892648430000     0.680637300000     0.862186200000    -0.4839     
N64      N      0.401905650000     0.214679550000     0.229746520000    -0.225122   
N64      N      0.401905650000     0.214679550000     0.729746520000    -0.225122   
N64      N      0.401905650000     0.714679550000     0.229746520000    -0.225122   
N64      N      0.401905650000     0.714679550000     0.729746520000    -0.225122   
N64      N      0.901905650000     0.214679550000     0.229746520000    -0.225122   
N64      N      0.901905650000     0.214679550000     0.729746520000    -0.225122   
N64      N      0.901905650000     0.714679550000     0.229746520000    -0.225122   
N64      N      0.901905650000     0.714679550000     0.729746520000    -0.225122   
N65      N      0.429750920000     0.216663480000     0.254396700000    -0.26698    
N65      N      0.429750920000     0.216663480000     0.754396700000    -0.26698    
N65      N      0.429750920000     0.716663480000     0.254396700000    -0.26698    
N65      N      0.429750920000     0.716663480000     0.754396700000    -0.26698    
N65      N      0.929750920000     0.216663480000     0.254396700000    -0.26698    
N65      N      0.929750920000     0.216663480000     0.754396700000    -0.26698    
N65      N      0.929750920000     0.716663480000     0.254396700000    -0.26698    
N65      N      0.929750920000     0.716663480000     0.754396700000    -0.26698    
N66      N      0.489344950000     0.238696190000     0.446242275000    -0.274346   
N66      N      0.489344950000     0.238696190000     0.946242275000    -0.274346   
N66      N      0.489344950000     0.738696190000     0.446242275000    -0.274346   
N66      N      0.489344950000     0.738696190000     0.946242275000    -0.274346   
N66      N      0.989344950000     0.238696190000     0.446242275000    -0.274346   
N66      N      0.989344950000     0.238696190000     0.946242275000    -0.274346   
N66      N      0.989344950000     0.738696190000     0.446242275000    -0.274346   
N66      N      0.989344950000     0.738696190000     0.946242275000    -0.274346   
N67      N      0.357826100000     0.198744135000     0.499914450000    -0.22285    
N67      N      0.357826100000     0.198744135000     0.999914450000    -0.22285    
N67      N      0.357826100000     0.698744135000     0.499914450000    -0.22285    
N67      N      0.357826100000     0.698744135000     0.999914450000    -0.22285    
N67      N      0.857826100000     0.198744135000     0.499914450000    -0.22285    
N67      N      0.857826100000     0.198744135000     0.999914450000    -0.22285    
N67      N      0.857826100000     0.698744135000     0.499914450000    -0.22285    
N67      N      0.857826100000     0.698744135000     0.999914450000    -0.22285    
N68      N      0.474871350000     0.235287680000     0.482711650000    -0.346978   
N68      N      0.474871350000     0.235287680000     0.982711650000    -0.346978   
N68      N      0.474871350000     0.735287680000     0.482711650000    -0.346978   
N68      N      0.474871350000     0.735287680000     0.982711650000    -0.346978   
N68      N      0.974871350000     0.235287680000     0.482711650000    -0.346978   
N68      N      0.974871350000     0.235287680000     0.982711650000    -0.346978   
N68      N      0.974871350000     0.735287680000     0.482711650000    -0.346978   
N68      N      0.974871350000     0.735287680000     0.982711650000    -0.346978   
N69      N      0.343352465000     0.195335640000     0.036383870000    -0.35615    
N69      N      0.343352465000     0.195335640000     0.536383870000    -0.35615    
N69      N      0.343352465000     0.695335640000     0.036383870000    -0.35615    
N69      N      0.343352465000     0.695335640000     0.536383870000    -0.35615    
N69      N      0.843352465000     0.195335640000     0.036383870000    -0.35615    
N69      N      0.843352465000     0.195335640000     0.536383870000    -0.35615    
N69      N      0.843352465000     0.695335640000     0.036383870000    -0.35615    
N69      N      0.843352465000     0.695335640000     0.536383870000    -0.35615    
O70      O      0.382815600000     0.161961500000     0.472270450000    -0.346016   
O70      O      0.382815600000     0.161961500000     0.972270450000    -0.346016   
O70      O      0.382815600000     0.661961500000     0.472270450000    -0.346016   
O70      O      0.382815600000     0.661961500000     0.972270450000    -0.346016   
O70      O      0.882815600000     0.161961500000     0.472270450000    -0.346016   
O70      O      0.882815600000     0.161961500000     0.972270450000    -0.346016   
O70      O      0.882815600000     0.661961500000     0.472270450000    -0.346016   
O70      O      0.882815600000     0.661961500000     0.972270450000    -0.346016   
O71      O      0.448848550000     0.270503900000     0.012354075000    -0.38898    
O71      O      0.448848550000     0.270503900000     0.512354075000    -0.38898    
O71      O      0.448848550000     0.770503900000     0.012354075000    -0.38898    
O71      O      0.448848550000     0.770503900000     0.512354075000    -0.38898    
O71      O      0.948848550000     0.270503900000     0.012354075000    -0.38898    
O71      O      0.948848550000     0.270503900000     0.512354075000    -0.38898    
O71      O      0.948848550000     0.770503900000     0.012354075000    -0.38898    
O71      O      0.948848550000     0.770503900000     0.512354075000    -0.38898    
O72      O      0.435439400000     0.160996320000     0.014746845000    -0.382474   
O72      O      0.435439400000     0.160996320000     0.514746845000    -0.382474   
O72      O      0.435439400000     0.660996320000     0.014746845000    -0.382474   
O72      O      0.435439400000     0.660996320000     0.514746845000    -0.382474   
O72      O      0.935439400000     0.160996320000     0.014746845000    -0.382474   
O72      O      0.935439400000     0.160996320000     0.514746845000    -0.382474   
O72      O      0.935439400000     0.660996320000     0.014746845000    -0.382474   
O72      O      0.935439400000     0.660996320000     0.514746845000    -0.382474   
O73      O      0.396224750000     0.271469050000     0.469877720000    -0.507854   
O73      O      0.396224750000     0.271469050000     0.969877720000    -0.507854   
O73      O      0.396224750000     0.771469050000     0.469877720000    -0.507854   
O73      O      0.396224750000     0.771469050000     0.969877720000    -0.507854   
O73      O      0.896224750000     0.271469050000     0.469877720000    -0.507854   
O73      O      0.896224750000     0.271469050000     0.969877720000    -0.507854   
O73      O      0.896224750000     0.771469050000     0.469877720000    -0.507854   
O73      O      0.896224750000     0.771469050000     0.969877720000    -0.507854   
O74      O      0.485480750000     0.222052665000     0.311735035000    -0.391536   
O74      O      0.485480750000     0.222052665000     0.811735035000    -0.391536   
O74      O      0.485480750000     0.722052665000     0.311735035000    -0.391536   
O74      O      0.485480750000     0.722052665000     0.811735035000    -0.391536   
O74      O      0.985480750000     0.222052665000     0.311735035000    -0.391536   
O74      O      0.985480750000     0.222052665000     0.811735035000    -0.391536   
O74      O      0.985480750000     0.722052665000     0.311735035000    -0.391536   
O74      O      0.985480750000     0.722052665000     0.811735035000    -0.391536   
O75      O      0.371010780000     0.236434430000     0.099118160000    -0.513199   
O75      O      0.371010780000     0.236434430000     0.599118160000    -0.513199   
O75      O      0.371010780000     0.736434430000     0.099118160000    -0.513199   
O75      O      0.371010780000     0.736434430000     0.599118160000    -0.513199   
O75      O      0.871010780000     0.236434430000     0.099118160000    -0.513199   
O75      O      0.871010780000     0.236434430000     0.599118160000    -0.513199   
O75      O      0.871010780000     0.736434430000     0.099118160000    -0.513199   
O75      O      0.871010780000     0.736434430000     0.599118160000    -0.513199   
O76      O      0.462887150000     0.191360860000     0.383935150000     1.21583    
O76      O      0.462887150000     0.191360860000     0.883935150000     1.21583    
O76      O      0.462887150000     0.691360860000     0.383935150000     1.21583    
O76      O      0.462887150000     0.691360860000     0.883935150000     1.21583    
O76      O      0.962887150000     0.191360860000     0.383935150000     1.21583    
O76      O      0.962887150000     0.191360860000     0.883935150000     1.21583    
O76      O      0.962887150000     0.691360860000     0.383935150000     1.21583    
O76      O      0.962887150000     0.691360860000     0.883935150000     1.21583    
O77      O      0.343595100000     0.215990275000     0.173676865000     1.23073    
O77      O      0.343595100000     0.215990275000     0.673676865000     1.23073    
O77      O      0.343595100000     0.715990275000     0.173676865000     1.23073    
O77      O      0.343595100000     0.715990275000     0.673676865000     1.23073    
O77      O      0.843595100000     0.215990275000     0.173676865000     1.23073    
O77      O      0.843595100000     0.215990275000     0.673676865000     1.23073    
O77      O      0.843595100000     0.715990275000     0.173676865000     1.23073    
O77      O      0.843595100000     0.715990275000     0.673676865000     1.23073    
F78      F      0.414533150000     0.024834870000     0.425442425000     0.157866   
F78      F      0.414533150000     0.024834870000     0.925442425000     0.157866   
F78      F      0.414533150000     0.524834870000     0.425442425000     0.157866   
F78      F      0.414533150000     0.524834870000     0.925442425000     0.157866   
F78      F      0.914533150000     0.024834870000     0.425442425000     0.157866   
F78      F      0.914533150000     0.024834870000     0.925442425000     0.157866   
F78      F      0.914533150000     0.524834870000     0.425442425000     0.157866   
F78      F      0.914533150000     0.524834870000     0.925442425000     0.157866   
F79      F      0.348254830000     0.412705450000     0.472677700000     0.17166    
F79      F      0.348254830000     0.412705450000     0.972677700000     0.17166    
F79      F      0.348254830000     0.912705450000     0.472677700000     0.17166    
F79      F      0.348254830000     0.912705450000     0.972677700000     0.17166    
F79      F      0.848254830000     0.412705450000     0.472677700000     0.17166    
F79      F      0.848254830000     0.412705450000     0.972677700000     0.17166    
F79      F      0.848254830000     0.912705450000     0.472677700000     0.17166    
F79      F      0.848254830000     0.912705450000     0.972677700000     0.17166    
F80      F      0.425962330000     0.022718670000     0.057424665000     0.177476   
F80      F      0.425962330000     0.022718670000     0.557424665000     0.177476   
F80      F      0.425962330000     0.522718670000     0.057424665000     0.177476   
F80      F      0.425962330000     0.522718670000     0.557424665000     0.177476   
F80      F      0.925962330000     0.022718670000     0.057424665000     0.177476   
F80      F      0.925962330000     0.022718670000     0.557424665000     0.177476   
F80      F      0.925962330000     0.522718670000     0.057424665000     0.177476   
F80      F      0.925962330000     0.522718670000     0.557424665000     0.177476   
F81      F      0.346743970000     0.335447300000     0.473395020000     0.066873   
F81      F      0.346743970000     0.335447300000     0.973395020000     0.066873   
F81      F      0.346743970000     0.835447300000     0.473395020000     0.066873   
F81      F      0.346743970000     0.835447300000     0.973395020000     0.066873   
F81      F      0.846743970000     0.335447300000     0.473395020000     0.066873   
F81      F      0.846743970000     0.335447300000     0.973395020000     0.066873   
F81      F      0.846743970000     0.835447300000     0.473395020000     0.066873   
F81      F      0.846743970000     0.835447300000     0.973395020000     0.066873   
F82      F      0.418521435000     0.100487590000     0.058992805000     0.069509   
F82      F      0.418521435000     0.100487590000     0.558992805000     0.069509   
F82      F      0.418521435000     0.600487590000     0.058992805000     0.069509   
F82      F      0.418521435000     0.600487590000     0.558992805000     0.069509   
F82      F      0.918521435000     0.100487590000     0.058992805000     0.069509   
F82      F      0.918521435000     0.100487590000     0.558992805000     0.069509   
F82      F      0.918521435000     0.600487590000     0.058992805000     0.069509   
F82      F      0.918521435000     0.600487590000     0.558992805000     0.069509   
F83      F      0.499272735000     0.328080980000     0.005048930000     0.095037   
F83      F      0.499272735000     0.328080980000     0.505048930000     0.095037   
F83      F      0.499272735000     0.828080980000     0.005048930000     0.095037   
F83      F      0.499272735000     0.828080980000     0.505048930000     0.095037   
F83      F      0.999272735000     0.328080980000     0.005048930000     0.095037   
F83      F      0.999272735000     0.328080980000     0.505048930000     0.095037   
F83      F      0.999272735000     0.828080980000     0.005048930000     0.095037   
F83      F      0.999272735000     0.828080980000     0.505048930000     0.095037   
F84      F      0.408894600000     0.102461040000     0.426464675000     0.096358   
F84      F      0.408894600000     0.102461040000     0.926464675000     0.096358   
F84      F      0.408894600000     0.602461040000     0.426464675000     0.096358   
F84      F      0.408894600000     0.602461040000     0.926464675000     0.096358   
F84      F      0.908894600000     0.102461040000     0.426464675000     0.096358   
F84      F      0.908894600000     0.102461040000     0.926464675000     0.096358   
F84      F      0.908894600000     0.602461040000     0.426464675000     0.096358   
F84      F      0.908894600000     0.602461040000     0.926464675000     0.096358   
F85      F      0.499312820000     0.405487715000     0.005445780000     0.162942   
F85      F      0.499312820000     0.405487715000     0.505445780000     0.162942   
F85      F      0.499312820000     0.905487715000     0.005445780000     0.162942   
F85      F      0.499312820000     0.905487715000     0.505445780000     0.162942   
F85      F      0.999312820000     0.405487715000     0.005445780000     0.162942   
F85      F      0.999312820000     0.405487715000     0.505445780000     0.162942   
F85      F      0.999312820000     0.905487715000     0.005445780000     0.162942   
F85      F      0.999312820000     0.905487715000     0.505445780000     0.162942   


