data_sample_2_relaxed_charged

_audit_creation_method RASPA-1.0
_audit_creation_date 2026-2-5
_audit_author_name ''

_cell_length_a    10.8168
_cell_length_b    12.0588
_cell_length_c    19.1624
_cell_angle_alpha 92.4467
_cell_angle_beta  91.9146
_cell_angle_gamma 105.024
_cell_volume      19274.2

_symmetry_cell_setting          triclinic
_symmetry_space_group_name_Hall 'P 1'
_symmetry_space_group_name_H-M  'P 1'
_symmetry_Int_Tables_number     1

_symmetry_equiv_pos_as_xyz 'x,y,z'

loop_
_atom_site_label
_atom_site_type_symbol
_atom_site_fract_x
_atom_site_fract_y
_atom_site_fract_z
_atom_site_charge
Zn0      Zn     0.215879010000     0.116838380000     0.383946570000     0.041903   
Zn0      Zn     0.215879010000     0.116838380000     0.883946570000     0.041903   
Zn0      Zn     0.215879010000     0.616838380000     0.383946570000     0.041903   
Zn0      Zn     0.215879010000     0.616838380000     0.883946570000     0.041903   
Zn0      Zn     0.715879010000     0.116838380000     0.383946570000     0.041903   
Zn0      Zn     0.715879010000     0.116838380000     0.883946570000     0.041903   
Zn0      Zn     0.715879010000     0.616838380000     0.383946570000     0.041903   
Zn0      Zn     0.715879010000     0.616838380000     0.883946570000     0.041903   
Zn1      Zn     0.076345265000     0.049460720000     0.379241465000     0.156262   
Zn1      Zn     0.076345265000     0.049460720000     0.879241465000     0.156262   
Zn1      Zn     0.076345265000     0.549460720000     0.379241465000     0.156262   
Zn1      Zn     0.076345265000     0.549460720000     0.879241465000     0.156262   
Zn1      Zn     0.576345265000     0.049460720000     0.379241465000     0.156262   
Zn1      Zn     0.576345265000     0.049460720000     0.879241465000     0.156262   
Zn1      Zn     0.576345265000     0.549460720000     0.379241465000     0.156262   
Zn1      Zn     0.576345265000     0.549460720000     0.879241465000     0.156262   
H2       H      0.276991650000     0.089574130000     0.220704615000     0.178527   
H2       H      0.276991650000     0.089574130000     0.720704615000     0.178527   
H2       H      0.276991650000     0.589574130000     0.220704615000     0.178527   
H2       H      0.276991650000     0.589574130000     0.720704615000     0.178527   
H2       H      0.776991650000     0.089574130000     0.220704615000     0.178527   
H2       H      0.776991650000     0.089574130000     0.720704615000     0.178527   
H2       H      0.776991650000     0.589574130000     0.220704615000     0.178527   
H2       H      0.776991650000     0.589574130000     0.720704615000     0.178527   
H3       H      0.152603900000     0.147334485000     0.064330690000     0.166724   
H3       H      0.152603900000     0.147334485000     0.564330690000     0.166724   
H3       H      0.152603900000     0.647334485000     0.064330690000     0.166724   
H3       H      0.152603900000     0.647334485000     0.564330690000     0.166724   
H3       H      0.652603900000     0.147334485000     0.064330690000     0.166724   
H3       H      0.652603900000     0.147334485000     0.564330690000     0.166724   
H3       H      0.652603900000     0.647334485000     0.064330690000     0.166724   
H3       H      0.652603900000     0.647334485000     0.564330690000     0.166724   
H4       H      0.257087600000     0.100644620000     0.282499225000     0.118476   
H4       H      0.257087600000     0.100644620000     0.782499225000     0.118476   
H4       H      0.257087600000     0.600644620000     0.282499225000     0.118476   
H4       H      0.257087600000     0.600644620000     0.782499225000     0.118476   
H4       H      0.757087600000     0.100644620000     0.282499225000     0.118476   
H4       H      0.757087600000     0.100644620000     0.782499225000     0.118476   
H4       H      0.757087600000     0.600644620000     0.282499225000     0.118476   
H4       H      0.757087600000     0.600644620000     0.782499225000     0.118476   
H5       H      0.125822065000     0.150608285000     0.002285380000     0.063398   
H5       H      0.125822065000     0.150608285000     0.502285380000     0.063398   
H5       H      0.125822065000     0.650608285000     0.002285380000     0.063398   
H5       H      0.125822065000     0.650608285000     0.502285380000     0.063398   
H5       H      0.625822065000     0.150608285000     0.002285380000     0.063398   
H5       H      0.625822065000     0.150608285000     0.502285380000     0.063398   
H5       H      0.625822065000     0.650608285000     0.002285380000     0.063398   
H5       H      0.625822065000     0.650608285000     0.502285380000     0.063398   
H6       H      0.143783985000     0.475500165000     0.157034220000     0.092323   
H6       H      0.143783985000     0.475500165000     0.657034220000     0.092323   
H6       H      0.143783985000     0.975500165000     0.157034220000     0.092323   
H6       H      0.143783985000     0.975500165000     0.657034220000     0.092323   
H6       H      0.643783985000     0.475500165000     0.157034220000     0.092323   
H6       H      0.643783985000     0.475500165000     0.657034220000     0.092323   
H6       H      0.643783985000     0.975500165000     0.157034220000     0.092323   
H6       H      0.643783985000     0.975500165000     0.657034220000     0.092323   
H7       H      0.251658400000     0.159619500000     0.105997070000     0.055634   
H7       H      0.251658400000     0.159619500000     0.605997070000     0.055634   
H7       H      0.251658400000     0.659619500000     0.105997070000     0.055634   
H7       H      0.251658400000     0.659619500000     0.605997070000     0.055634   
H7       H      0.751658400000     0.159619500000     0.105997070000     0.055634   
H7       H      0.751658400000     0.159619500000     0.605997070000     0.055634   
H7       H      0.751658400000     0.659619500000     0.105997070000     0.055634   
H7       H      0.751658400000     0.659619500000     0.605997070000     0.055634   
H8       H      0.149964260000     0.479892250000     0.093510360000     0.081886   
H8       H      0.149964260000     0.479892250000     0.593510360000     0.081886   
H8       H      0.149964260000     0.979892250000     0.093510360000     0.081886   
H8       H      0.149964260000     0.979892250000     0.593510360000     0.081886   
H8       H      0.649964260000     0.479892250000     0.093510360000     0.081886   
H8       H      0.649964260000     0.479892250000     0.593510360000     0.081886   
H8       H      0.649964260000     0.979892250000     0.093510360000     0.081886   
H8       H      0.649964260000     0.979892250000     0.593510360000     0.081886   
H9       H      0.242131900000     0.155759125000     0.169432865000     0.160802   
H9       H      0.242131900000     0.155759125000     0.669432865000     0.160802   
H9       H      0.242131900000     0.655759125000     0.169432865000     0.160802   
H9       H      0.242131900000     0.655759125000     0.669432865000     0.160802   
H9       H      0.742131900000     0.155759125000     0.169432865000     0.160802   
H9       H      0.742131900000     0.155759125000     0.669432865000     0.160802   
H9       H      0.742131900000     0.655759125000     0.169432865000     0.160802   
H9       H      0.742131900000     0.655759125000     0.669432865000     0.160802   
H10      H      0.006985190000     0.251469375000     0.336246550000     0.156042   
H10      H      0.006985190000     0.251469375000     0.836246550000     0.156042   
H10      H      0.006985190000     0.751469375000     0.336246550000     0.156042   
H10      H      0.006985190000     0.751469375000     0.836246550000     0.156042   
H10      H      0.506985190000     0.251469375000     0.336246550000     0.156042   
H10      H      0.506985190000     0.251469375000     0.836246550000     0.156042   
H10      H      0.506985190000     0.751469375000     0.336246550000     0.156042   
H10      H      0.506985190000     0.751469375000     0.836246550000     0.156042   
H11      H      0.081496835000     0.215372935000     0.364676180000     0.060135   
H11      H      0.081496835000     0.215372935000     0.864676180000     0.060135   
H11      H      0.081496835000     0.715372935000     0.364676180000     0.060135   
H11      H      0.081496835000     0.715372935000     0.864676180000     0.060135   
H11      H      0.581496835000     0.215372935000     0.364676180000     0.060135   
H11      H      0.581496835000     0.215372935000     0.864676180000     0.060135   
H11      H      0.581496835000     0.715372935000     0.364676180000     0.060135   
H11      H      0.581496835000     0.715372935000     0.864676180000     0.060135   
H12      H      0.198781300000     0.439188125000     0.393729200000     0.128031   
H12      H      0.198781300000     0.439188125000     0.893729200000     0.128031   
H12      H      0.198781300000     0.939188125000     0.393729200000     0.128031   
H12      H      0.198781300000     0.939188125000     0.893729200000     0.128031   
H12      H      0.698781300000     0.439188125000     0.393729200000     0.128031   
H12      H      0.698781300000     0.439188125000     0.893729200000     0.128031   
H12      H      0.698781300000     0.939188125000     0.393729200000     0.128031   
H12      H      0.698781300000     0.939188125000     0.893729200000     0.128031   
H13      H      0.362335115000     0.257380935000     0.404902520000     0.057744   
H13      H      0.362335115000     0.257380935000     0.904902520000     0.057744   
H13      H      0.362335115000     0.757380935000     0.404902520000     0.057744   
H13      H      0.362335115000     0.757380935000     0.904902520000     0.057744   
H13      H      0.862335115000     0.257380935000     0.404902520000     0.057744   
H13      H      0.862335115000     0.257380935000     0.904902520000     0.057744   
H13      H      0.862335115000     0.757380935000     0.404902520000     0.057744   
H13      H      0.862335115000     0.757380935000     0.904902520000     0.057744   
H14      H      0.471983050000     0.000854805000     0.349647250000     0.297162   
H14      H      0.471983050000     0.000854805000     0.849647250000     0.297162   
H14      H      0.471983050000     0.500854805000     0.349647250000     0.297162   
H14      H      0.471983050000     0.500854805000     0.849647250000     0.297162   
H14      H      0.971983050000     0.000854805000     0.349647250000     0.297162   
H14      H      0.971983050000     0.000854805000     0.849647250000     0.297162   
H14      H      0.971983050000     0.500854805000     0.349647250000     0.297162   
H14      H      0.971983050000     0.500854805000     0.849647250000     0.297162   
H15      H      0.268498570000     0.389186770000     0.401347725000     0.347635   
H15      H      0.268498570000     0.389186770000     0.901347725000     0.347635   
H15      H      0.268498570000     0.889186770000     0.401347725000     0.347635   
H15      H      0.268498570000     0.889186770000     0.901347725000     0.347635   
H15      H      0.768498570000     0.389186770000     0.401347725000     0.347635   
H15      H      0.768498570000     0.389186770000     0.901347725000     0.347635   
H15      H      0.768498570000     0.889186770000     0.401347725000     0.347635   
H15      H      0.768498570000     0.889186770000     0.901347725000     0.347635   
H16      H      0.408982500000     0.272552280000     0.352119180000     0.10299    
H16      H      0.408982500000     0.272552280000     0.852119180000     0.10299    
H16      H      0.408982500000     0.772552280000     0.352119180000     0.10299    
H16      H      0.408982500000     0.772552280000     0.852119180000     0.10299    
H16      H      0.908982500000     0.272552280000     0.352119180000     0.10299    
H16      H      0.908982500000     0.272552280000     0.852119180000     0.10299    
H16      H      0.908982500000     0.772552280000     0.352119180000     0.10299    
H16      H      0.908982500000     0.772552280000     0.852119180000     0.10299    
H17      H      0.376315150000     0.383601070000     0.393073050000     0.074738   
H17      H      0.376315150000     0.383601070000     0.893073050000     0.074738   
H17      H      0.376315150000     0.883601070000     0.393073050000     0.074738   
H17      H      0.376315150000     0.883601070000     0.893073050000     0.074738   
H17      H      0.876315150000     0.383601070000     0.393073050000     0.074738   
H17      H      0.876315150000     0.383601070000     0.893073050000     0.074738   
H17      H      0.876315150000     0.883601070000     0.393073050000     0.074738   
H17      H      0.876315150000     0.883601070000     0.893073050000     0.074738   
H18      H      0.115839930000     0.360647975000     0.439653700000     0.031387   
H18      H      0.115839930000     0.360647975000     0.939653700000     0.031387   
H18      H      0.115839930000     0.860647975000     0.439653700000     0.031387   
H18      H      0.115839930000     0.860647975000     0.939653700000     0.031387   
H18      H      0.615839930000     0.360647975000     0.439653700000     0.031387   
H18      H      0.615839930000     0.360647975000     0.939653700000     0.031387   
H18      H      0.615839930000     0.860647975000     0.439653700000     0.031387   
H18      H      0.615839930000     0.860647975000     0.939653700000     0.031387   
H19      H      0.245855800000     0.344603750000     0.444467450000     0.043702   
H19      H      0.245855800000     0.344603750000     0.944467450000     0.043702   
H19      H      0.245855800000     0.844603750000     0.444467450000     0.043702   
H19      H      0.245855800000     0.844603750000     0.944467450000     0.043702   
H19      H      0.745855800000     0.344603750000     0.444467450000     0.043702   
H19      H      0.745855800000     0.344603750000     0.944467450000     0.043702   
H19      H      0.745855800000     0.844603750000     0.444467450000     0.043702   
H19      H      0.745855800000     0.844603750000     0.944467450000     0.043702   
H20      H      0.046875415000     0.318608600000     0.318843800000     0.018152   
H20      H      0.046875415000     0.318608600000     0.818843800000     0.018152   
H20      H      0.046875415000     0.818608600000     0.318843800000     0.018152   
H20      H      0.046875415000     0.818608600000     0.818843800000     0.018152   
H20      H      0.546875415000     0.318608600000     0.318843800000     0.018152   
H20      H      0.546875415000     0.318608600000     0.818843800000     0.018152   
H20      H      0.546875415000     0.818608600000     0.318843800000     0.018152   
H20      H      0.546875415000     0.818608600000     0.818843800000     0.018152   
H21      H      0.176897035000     0.302541100000     0.323656800000     0.019528   
H21      H      0.176897035000     0.302541100000     0.823656800000     0.019528   
H21      H      0.176897035000     0.802541100000     0.323656800000     0.019528   
H21      H      0.176897035000     0.802541100000     0.823656800000     0.019528   
H21      H      0.676897035000     0.302541100000     0.323656800000     0.019528   
H21      H      0.676897035000     0.302541100000     0.823656800000     0.019528   
H21      H      0.676897035000     0.802541100000     0.323656800000     0.019528   
H21      H      0.676897035000     0.802541100000     0.823656800000     0.019528   
H22      H      0.034686700000     0.278521800000     0.390302480000    -0.053199   
H22      H      0.034686700000     0.278521800000     0.890302480000    -0.053199   
H22      H      0.034686700000     0.778521800000     0.390302480000    -0.053199   
H22      H      0.034686700000     0.778521800000     0.890302480000    -0.053199   
H22      H      0.534686700000     0.278521800000     0.390302480000    -0.053199   
H22      H      0.534686700000     0.278521800000     0.890302480000    -0.053199   
H22      H      0.534686700000     0.778521800000     0.390302480000    -0.053199   
H22      H      0.534686700000     0.778521800000     0.890302480000    -0.053199   
H23      H      0.258060750000     0.384693535000     0.373014450000    -0.036513   
H23      H      0.258060750000     0.384693535000     0.873014450000    -0.036513   
H23      H      0.258060750000     0.884693535000     0.373014450000    -0.036513   
H23      H      0.258060750000     0.884693535000     0.873014450000    -0.036513   
H23      H      0.758060750000     0.384693535000     0.373014450000    -0.036513   
H23      H      0.758060750000     0.384693535000     0.873014450000    -0.036513   
H23      H      0.758060750000     0.884693535000     0.373014450000    -0.036513   
H23      H      0.758060750000     0.884693535000     0.873014450000    -0.036513   
C24      C      0.147094710000     0.081987890000     0.450336650000     0.033597   
C24      C      0.147094710000     0.081987890000     0.950336650000     0.033597   
C24      C      0.147094710000     0.581987890000     0.450336650000     0.033597   
C24      C      0.147094710000     0.581987890000     0.950336650000     0.033597   
C24      C      0.647094710000     0.081987890000     0.450336650000     0.033597   
C24      C      0.647094710000     0.081987890000     0.950336650000     0.033597   
C24      C      0.647094710000     0.581987890000     0.450336650000     0.033597   
C24      C      0.647094710000     0.581987890000     0.950336650000     0.033597   
C25      C      0.145622700000     0.083473430000     0.311626650000    -0.000171   
C25      C      0.145622700000     0.083473430000     0.811626650000    -0.000171   
C25      C      0.145622700000     0.583473430000     0.311626650000    -0.000171   
C25      C      0.145622700000     0.583473430000     0.811626650000    -0.000171   
C25      C      0.645622700000     0.083473430000     0.311626650000    -0.000171   
C25      C      0.645622700000     0.083473430000     0.811626650000    -0.000171   
C25      C      0.645622700000     0.583473430000     0.311626650000    -0.000171   
C25      C      0.645622700000     0.583473430000     0.811626650000    -0.000171   
C26      C      0.101311795000     0.063946090000     0.250152400000    -0.097054   
C26      C      0.101311795000     0.063946090000     0.750152400000    -0.097054   
C26      C      0.101311795000     0.563946090000     0.250152400000    -0.097054   
C26      C      0.101311795000     0.563946090000     0.750152400000    -0.097054   
C26      C      0.601311795000     0.063946090000     0.250152400000    -0.097054   
C26      C      0.601311795000     0.063946090000     0.750152400000    -0.097054   
C26      C      0.601311795000     0.563946090000     0.250152400000    -0.097054   
C26      C      0.601311795000     0.563946090000     0.750152400000    -0.097054   
C27      C      0.191427260000     0.035797075000     0.498151125000    -0.053785   
C27      C      0.191427260000     0.035797075000     0.998151125000    -0.053785   
C27      C      0.191427260000     0.535797075000     0.498151125000    -0.053785   
C27      C      0.191427260000     0.535797075000     0.998151125000    -0.053785   
C27      C      0.691427260000     0.035797075000     0.498151125000    -0.053785   
C27      C      0.691427260000     0.035797075000     0.998151125000    -0.053785   
C27      C      0.691427260000     0.535797075000     0.498151125000    -0.053785   
C27      C      0.691427260000     0.535797075000     0.998151125000    -0.053785   
C28      C      0.113046705000     0.057220610000     0.214547125000     0.01005    
C28      C      0.113046705000     0.057220610000     0.714547125000     0.01005    
C28      C      0.113046705000     0.557220610000     0.214547125000     0.01005    
C28      C      0.113046705000     0.557220610000     0.714547125000     0.01005    
C28      C      0.613046705000     0.057220610000     0.214547125000     0.01005    
C28      C      0.613046705000     0.057220610000     0.714547125000     0.01005    
C28      C      0.613046705000     0.557220610000     0.214547125000     0.01005    
C28      C      0.613046705000     0.557220610000     0.714547125000     0.01005    
C29      C      0.209380700000     0.035187940000     0.033677955000    -0.027097   
C29      C      0.209380700000     0.035187940000     0.533677955000    -0.027097   
C29      C      0.209380700000     0.535187940000     0.033677955000    -0.027097   
C29      C      0.209380700000     0.535187940000     0.533677955000    -0.027097   
C29      C      0.709380700000     0.035187940000     0.033677955000    -0.027097   
C29      C      0.709380700000     0.035187940000     0.533677955000    -0.027097   
C29      C      0.709380700000     0.535187940000     0.033677955000    -0.027097   
C29      C      0.709380700000     0.535187940000     0.533677955000    -0.027097   
C30      C      0.176777065000     0.066271650000     0.204121620000     0.040763   
C30      C      0.176777065000     0.066271650000     0.704121620000     0.040763   
C30      C      0.176777065000     0.566271650000     0.204121620000     0.040763   
C30      C      0.176777065000     0.566271650000     0.704121620000     0.040763   
C30      C      0.676777065000     0.066271650000     0.204121620000     0.040763   
C30      C      0.676777065000     0.066271650000     0.704121620000     0.040763   
C30      C      0.676777065000     0.566271650000     0.204121620000     0.040763   
C30      C      0.676777065000     0.566271650000     0.704121620000     0.040763   
C31      C      0.194330960000     0.075189925000     0.057677930000    -0.028494   
C31      C      0.194330960000     0.075189925000     0.557677930000    -0.028494   
C31      C      0.194330960000     0.575189925000     0.057677930000    -0.028494   
C31      C      0.194330960000     0.575189925000     0.557677930000    -0.028494   
C31      C      0.694330960000     0.075189925000     0.057677930000    -0.028494   
C31      C      0.694330960000     0.075189925000     0.557677930000    -0.028494   
C31      C      0.694330960000     0.575189925000     0.057677930000    -0.028494   
C31      C      0.694330960000     0.575189925000     0.557677930000    -0.028494   
C32      C      0.228056650000     0.082054510000     0.228714950000     0.015323   
C32      C      0.228056650000     0.082054510000     0.728714950000     0.015323   
C32      C      0.228056650000     0.582054510000     0.228714950000     0.015323   
C32      C      0.228056650000     0.582054510000     0.728714950000     0.015323   
C32      C      0.728056650000     0.082054510000     0.228714950000     0.015323   
C32      C      0.728056650000     0.082054510000     0.728714950000     0.015323   
C32      C      0.728056650000     0.582054510000     0.228714950000     0.015323   
C32      C      0.728056650000     0.582054510000     0.728714950000     0.015323   
C33      C      0.164785370000     0.116777765000     0.046020875000     0.014697   
C33      C      0.164785370000     0.116777765000     0.546020875000     0.014697   
C33      C      0.164785370000     0.616777765000     0.046020875000     0.014697   
C33      C      0.164785370000     0.616777765000     0.546020875000     0.014697   
C33      C      0.664785370000     0.116777765000     0.046020875000     0.014697   
C33      C      0.664785370000     0.116777765000     0.546020875000     0.014697   
C33      C      0.664785370000     0.616777765000     0.046020875000     0.014697   
C33      C      0.664785370000     0.616777765000     0.546020875000     0.014697   
C34      C      0.216724500000     0.089094685000     0.263652980000    -0.133359   
C34      C      0.216724500000     0.089094685000     0.763652980000    -0.133359   
C34      C      0.216724500000     0.589094685000     0.263652980000    -0.133359   
C34      C      0.216724500000     0.589094685000     0.763652980000    -0.133359   
C34      C      0.716724500000     0.089094685000     0.263652980000    -0.133359   
C34      C      0.716724500000     0.089094685000     0.763652980000    -0.133359   
C34      C      0.716724500000     0.589094685000     0.263652980000    -0.133359   
C34      C      0.716724500000     0.589094685000     0.763652980000    -0.133359   
C35      C      0.148324890000     0.118012770000     0.010927340000    -0.070619   
C35      C      0.148324890000     0.118012770000     0.510927340000    -0.070619   
C35      C      0.148324890000     0.618012770000     0.010927340000    -0.070619   
C35      C      0.148324890000     0.618012770000     0.510927340000    -0.070619   
C35      C      0.648324890000     0.118012770000     0.010927340000    -0.070619   
C35      C      0.648324890000     0.118012770000     0.510927340000    -0.070619   
C35      C      0.648324890000     0.618012770000     0.010927340000    -0.070619   
C35      C      0.648324890000     0.618012770000     0.510927340000    -0.070619   
C36      C      0.153974115000     0.080036635000     0.274452300000     0.012522   
C36      C      0.153974115000     0.080036635000     0.774452300000     0.012522   
C36      C      0.153974115000     0.580036635000     0.274452300000     0.012522   
C36      C      0.153974115000     0.580036635000     0.774452300000     0.012522   
C36      C      0.653974115000     0.080036635000     0.274452300000     0.012522   
C36      C      0.653974115000     0.080036635000     0.774452300000     0.012522   
C36      C      0.653974115000     0.580036635000     0.274452300000     0.012522   
C36      C      0.653974115000     0.580036635000     0.774452300000     0.012522   
C37      C      0.160032990000     0.077026910000     0.487168280000    -0.006285   
C37      C      0.160032990000     0.077026910000     0.987168280000    -0.006285   
C37      C      0.160032990000     0.577026910000     0.487168280000    -0.006285   
C37      C      0.160032990000     0.577026910000     0.987168280000    -0.006285   
C37      C      0.660032990000     0.077026910000     0.487168280000    -0.006285   
C37      C      0.660032990000     0.077026910000     0.987168280000    -0.006285   
C37      C      0.660032990000     0.577026910000     0.487168280000    -0.006285   
C37      C      0.660032990000     0.577026910000     0.987168280000    -0.006285   
C38      C      0.167792885000     0.015556570000     0.145962415000    -0.179654   
C38      C      0.167792885000     0.015556570000     0.645962415000    -0.179654   
C38      C      0.167792885000     0.515556570000     0.145962415000    -0.179654   
C38      C      0.167792885000     0.515556570000     0.645962415000    -0.179654   
C38      C      0.667792885000     0.015556570000     0.145962415000    -0.179654   
C38      C      0.667792885000     0.015556570000     0.645962415000    -0.179654   
C38      C      0.667792885000     0.515556570000     0.145962415000    -0.179654   
C38      C      0.667792885000     0.515556570000     0.645962415000    -0.179654   
C39      C      0.228963270000     0.119142665000     0.117043200000     0.226771   
C39      C      0.228963270000     0.119142665000     0.617043200000     0.226771   
C39      C      0.228963270000     0.619142665000     0.117043200000     0.226771   
C39      C      0.228963270000     0.619142665000     0.617043200000     0.226771   
C39      C      0.728963270000     0.119142665000     0.117043200000     0.226771   
C39      C      0.728963270000     0.119142665000     0.617043200000     0.226771   
C39      C      0.728963270000     0.619142665000     0.117043200000     0.226771   
C39      C      0.728963270000     0.619142665000     0.617043200000     0.226771   
C40      C      0.172219960000     0.017925670000     0.109989680000     0.166514   
C40      C      0.172219960000     0.017925670000     0.609989680000     0.166514   
C40      C      0.172219960000     0.517925670000     0.109989680000     0.166514   
C40      C      0.172219960000     0.517925670000     0.609989680000     0.166514   
C40      C      0.672219960000     0.017925670000     0.109989680000     0.166514   
C40      C      0.672219960000     0.017925670000     0.609989680000     0.166514   
C40      C      0.672219960000     0.517925670000     0.109989680000     0.166514   
C40      C      0.672219960000     0.517925670000     0.609989680000     0.166514   
C41      C      0.223688960000     0.116913800000     0.152969165000    -0.118625   
C41      C      0.223688960000     0.116913800000     0.652969165000    -0.118625   
C41      C      0.223688960000     0.616913800000     0.152969165000    -0.118625   
C41      C      0.223688960000     0.616913800000     0.652969165000    -0.118625   
C41      C      0.723688960000     0.116913800000     0.152969165000    -0.118625   
C41      C      0.723688960000     0.116913800000     0.652969165000    -0.118625   
C41      C      0.723688960000     0.616913800000     0.152969165000    -0.118625   
C41      C      0.723688960000     0.616913800000     0.652969165000    -0.118625   
C42      C      0.201250400000     0.070146210000     0.095371030000    -0.175945   
C42      C      0.201250400000     0.070146210000     0.595371030000    -0.175945   
C42      C      0.201250400000     0.570146210000     0.095371030000    -0.175945   
C42      C      0.201250400000     0.570146210000     0.595371030000    -0.175945   
C42      C      0.701250400000     0.070146210000     0.095371030000    -0.175945   
C42      C      0.701250400000     0.070146210000     0.595371030000    -0.175945   
C42      C      0.701250400000     0.570146210000     0.095371030000    -0.175945   
C42      C      0.701250400000     0.570146210000     0.595371030000    -0.175945   
C43      C      0.190921260000     0.065666380000     0.167275920000    -0.008316   
C43      C      0.190921260000     0.065666380000     0.667275920000    -0.008316   
C43      C      0.190921260000     0.565666380000     0.167275920000    -0.008316   
C43      C      0.190921260000     0.565666380000     0.667275920000    -0.008316   
C43      C      0.690921260000     0.065666380000     0.167275920000    -0.008316   
C43      C      0.690921260000     0.065666380000     0.667275920000    -0.008316   
C43      C      0.690921260000     0.565666380000     0.167275920000    -0.008316   
C43      C      0.690921260000     0.565666380000     0.667275920000    -0.008316   
C44      C      0.270928470000     0.092617505000     0.360158600000     0.197869   
C44      C      0.270928470000     0.092617505000     0.860158600000     0.197869   
C44      C      0.270928470000     0.592617505000     0.360158600000     0.197869   
C44      C      0.270928470000     0.592617505000     0.860158600000     0.197869   
C44      C      0.770928470000     0.092617505000     0.360158600000     0.197869   
C44      C      0.770928470000     0.092617505000     0.860158600000     0.197869   
C44      C      0.770928470000     0.592617505000     0.360158600000     0.197869   
C44      C      0.770928470000     0.592617505000     0.860158600000     0.197869   
C45      C      0.016921105000     0.072900525000     0.404644280000    -0.009755   
C45      C      0.016921105000     0.072900525000     0.904644280000    -0.009755   
C45      C      0.016921105000     0.572900525000     0.404644280000    -0.009755   
C45      C      0.016921105000     0.572900525000     0.904644280000    -0.009755   
C45      C      0.516921105000     0.072900525000     0.404644280000    -0.009755   
C45      C      0.516921105000     0.072900525000     0.904644280000    -0.009755   
C45      C      0.516921105000     0.572900525000     0.404644280000    -0.009755   
C45      C      0.516921105000     0.572900525000     0.904644280000    -0.009755   
C46      C      0.454248550000     0.077159775000     0.390024215000     0.112862   
C46      C      0.454248550000     0.077159775000     0.890024215000     0.112862   
C46      C      0.454248550000     0.577159775000     0.390024215000     0.112862   
C46      C      0.454248550000     0.577159775000     0.890024215000     0.112862   
C46      C      0.954248550000     0.077159775000     0.390024215000     0.112862   
C46      C      0.954248550000     0.077159775000     0.890024215000     0.112862   
C46      C      0.954248550000     0.577159775000     0.390024215000     0.112862   
C46      C      0.954248550000     0.577159775000     0.890024215000     0.112862   
C47      C      0.329494100000     0.088124655000     0.379264265000    -0.043606   
C47      C      0.329494100000     0.088124655000     0.879264265000    -0.043606   
C47      C      0.329494100000     0.588124655000     0.379264265000    -0.043606   
C47      C      0.329494100000     0.588124655000     0.879264265000    -0.043606   
C47      C      0.829494100000     0.088124655000     0.379264265000    -0.043606   
C47      C      0.829494100000     0.088124655000     0.879264265000    -0.043606   
C47      C      0.829494100000     0.588124655000     0.379264265000    -0.043606   
C47      C      0.829494100000     0.588124655000     0.879264265000    -0.043606   
C48      C      0.492301015000     0.174920485000     0.364963850000     0.030902   
C48      C      0.492301015000     0.174920485000     0.864963850000     0.030902   
C48      C      0.492301015000     0.674920485000     0.364963850000     0.030902   
C48      C      0.492301015000     0.674920485000     0.864963850000     0.030902   
C48      C      0.992301015000     0.174920485000     0.364963850000     0.030902   
C48      C      0.992301015000     0.174920485000     0.864963850000     0.030902   
C48      C      0.992301015000     0.674920485000     0.364963850000     0.030902   
C48      C      0.992301015000     0.674920485000     0.864963850000     0.030902   
C49      C      0.288756700000     0.480266930000     0.391875250000     0.064495   
C49      C      0.288756700000     0.480266930000     0.891875250000     0.064495   
C49      C      0.288756700000     0.980266930000     0.391875250000     0.064495   
C49      C      0.288756700000     0.980266930000     0.891875250000     0.064495   
C49      C      0.788756700000     0.480266930000     0.391875250000     0.064495   
C49      C      0.788756700000     0.480266930000     0.891875250000     0.064495   
C49      C      0.788756700000     0.980266930000     0.391875250000     0.064495   
C49      C      0.788756700000     0.980266930000     0.891875250000     0.064495   
C50      C      0.473967200000     0.220319315000     0.349874615000    -0.002279   
C50      C      0.473967200000     0.220319315000     0.849874615000    -0.002279   
C50      C      0.473967200000     0.720319315000     0.349874615000    -0.002279   
C50      C      0.473967200000     0.720319315000     0.849874615000    -0.002279   
C50      C      0.973967200000     0.220319315000     0.349874615000    -0.002279   
C50      C      0.973967200000     0.220319315000     0.849874615000    -0.002279   
C50      C      0.973967200000     0.720319315000     0.349874615000    -0.002279   
C50      C      0.973967200000     0.720319315000     0.849874615000    -0.002279   
C51      C      0.304793900000     0.428415835000     0.397350550000    -0.080303   
C51      C      0.304793900000     0.428415835000     0.897350550000    -0.080303   
C51      C      0.304793900000     0.928415835000     0.397350550000    -0.080303   
C51      C      0.304793900000     0.928415835000     0.897350550000    -0.080303   
C51      C      0.804793900000     0.428415835000     0.397350550000    -0.080303   
C51      C      0.804793900000     0.428415835000     0.897350550000    -0.080303   
C51      C      0.804793900000     0.928415835000     0.397350550000    -0.080303   
C51      C      0.804793900000     0.928415835000     0.897350550000    -0.080303   
C52      C      0.416853450000     0.231025575000     0.357281550000    -0.061102   
C52      C      0.416853450000     0.231025575000     0.857281550000    -0.061102   
C52      C      0.416853450000     0.731025575000     0.357281550000    -0.061102   
C52      C      0.416853450000     0.731025575000     0.857281550000    -0.061102   
C52      C      0.916853450000     0.231025575000     0.357281550000    -0.061102   
C52      C      0.916853450000     0.231025575000     0.857281550000    -0.061102   
C52      C      0.916853450000     0.731025575000     0.357281550000    -0.061102   
C52      C      0.916853450000     0.731025575000     0.857281550000    -0.061102   
C53      C      0.366157700000     0.425152650000     0.393714430000    -0.045227   
C53      C      0.366157700000     0.425152650000     0.893714430000    -0.045227   
C53      C      0.366157700000     0.925152650000     0.393714430000    -0.045227   
C53      C      0.366157700000     0.925152650000     0.893714430000    -0.045227   
C53      C      0.866157700000     0.425152650000     0.393714430000    -0.045227   
C53      C      0.866157700000     0.425152650000     0.893714430000    -0.045227   
C53      C      0.866157700000     0.925152650000     0.393714430000    -0.045227   
C53      C      0.866157700000     0.925152650000     0.893714430000    -0.045227   
C54      C      0.377392230000     0.193327365000     0.378349900000     0.144044   
C54      C      0.377392230000     0.193327365000     0.878349900000     0.144044   
C54      C      0.377392230000     0.693327365000     0.378349900000     0.144044   
C54      C      0.377392230000     0.693327365000     0.878349900000     0.144044   
C54      C      0.877392230000     0.193327365000     0.378349900000     0.144044   
C54      C      0.877392230000     0.193327365000     0.878349900000     0.144044   
C54      C      0.877392230000     0.693327365000     0.378349900000     0.144044   
C54      C      0.877392230000     0.693327365000     0.878349900000     0.144044   
C55      C      0.444765900000     0.129459900000     0.378693200000     0.158748   
C55      C      0.444765900000     0.129459900000     0.878693200000     0.158748   
C55      C      0.444765900000     0.629459900000     0.378693200000     0.158748   
C55      C      0.444765900000     0.629459900000     0.878693200000     0.158748   
C55      C      0.944765900000     0.129459900000     0.378693200000     0.158748   
C55      C      0.944765900000     0.129459900000     0.878693200000     0.158748   
C55      C      0.944765900000     0.629459900000     0.378693200000     0.158748   
C55      C      0.944765900000     0.629459900000     0.878693200000     0.158748   
C56      C      0.410665570000     0.473522200000     0.384419250000    -0.049262   
C56      C      0.410665570000     0.473522200000     0.884419250000    -0.049262   
C56      C      0.410665570000     0.973522200000     0.384419250000    -0.049262   
C56      C      0.410665570000     0.973522200000     0.884419250000    -0.049262   
C56      C      0.910665570000     0.473522200000     0.384419250000    -0.049262   
C56      C      0.910665570000     0.473522200000     0.884419250000    -0.049262   
C56      C      0.910665570000     0.973522200000     0.384419250000    -0.049262   
C56      C      0.910665570000     0.973522200000     0.884419250000    -0.049262   
C57      C      0.383081080000     0.136658965000     0.379627800000    -0.080072   
C57      C      0.383081080000     0.136658965000     0.879627800000    -0.080072   
C57      C      0.383081080000     0.636658965000     0.379627800000    -0.080072   
C57      C      0.383081080000     0.636658965000     0.879627800000    -0.080072   
C57      C      0.883081080000     0.136658965000     0.379627800000    -0.080072   
C57      C      0.883081080000     0.136658965000     0.879627800000    -0.080072   
C57      C      0.883081080000     0.636658965000     0.379627800000    -0.080072   
C57      C      0.883081080000     0.636658965000     0.879627800000    -0.080072   
C58      C      0.401296800000     0.028430040000     0.389864150000     0.011116   
C58      C      0.401296800000     0.028430040000     0.889864150000     0.011116   
C58      C      0.401296800000     0.528430040000     0.389864150000     0.011116   
C58      C      0.401296800000     0.528430040000     0.889864150000     0.011116   
C58      C      0.901296800000     0.028430040000     0.389864150000     0.011116   
C58      C      0.901296800000     0.028430040000     0.889864150000     0.011116   
C58      C      0.901296800000     0.528430040000     0.389864150000     0.011116   
C58      C      0.901296800000     0.528430040000     0.889864150000     0.011116   
C59      C      0.338230135000     0.032942585000     0.387874050000     0.1133     
C59      C      0.338230135000     0.032942585000     0.887874050000     0.1133     
C59      C      0.338230135000     0.532942585000     0.387874050000     0.1133     
C59      C      0.338230135000     0.532942585000     0.887874050000     0.1133     
C59      C      0.838230135000     0.032942585000     0.387874050000     0.1133     
C59      C      0.838230135000     0.032942585000     0.887874050000     0.1133     
C59      C      0.838230135000     0.532942585000     0.387874050000     0.1133     
C59      C      0.838230135000     0.532942585000     0.887874050000     0.1133     
C60      C      0.085232610000     0.302169500000     0.386794800000    -0.042255   
C60      C      0.085232610000     0.302169500000     0.886794800000    -0.042255   
C60      C      0.085232610000     0.802169500000     0.386794800000    -0.042255   
C60      C      0.085232610000     0.802169500000     0.886794800000    -0.042255   
C60      C      0.585232610000     0.302169500000     0.386794800000    -0.042255   
C60      C      0.585232610000     0.302169500000     0.886794800000    -0.042255   
C60      C      0.585232610000     0.802169500000     0.386794800000    -0.042255   
C60      C      0.585232610000     0.802169500000     0.886794800000    -0.042255   
C61      C      0.207506580000     0.361050350000     0.376516400000    -0.007564   
C61      C      0.207506580000     0.361050350000     0.876516400000    -0.007564   
C61      C      0.207506580000     0.861050350000     0.376516400000    -0.007564   
C61      C      0.207506580000     0.861050350000     0.876516400000    -0.007564   
C61      C      0.707506580000     0.361050350000     0.376516400000    -0.007564   
C61      C      0.707506580000     0.361050350000     0.876516400000    -0.007564   
C61      C      0.707506580000     0.861050350000     0.376516400000    -0.007564   
C61      C      0.707506580000     0.861050350000     0.876516400000    -0.007564   
C62      C      0.128929035000     0.347764430000     0.413334070000    -0.054517   
C62      C      0.128929035000     0.347764430000     0.913334070000    -0.054517   
C62      C      0.128929035000     0.847764430000     0.413334070000    -0.054517   
C62      C      0.128929035000     0.847764430000     0.913334070000    -0.054517   
C62      C      0.628929035000     0.347764430000     0.413334070000    -0.054517   
C62      C      0.628929035000     0.347764430000     0.913334070000    -0.054517   
C62      C      0.628929035000     0.847764430000     0.413334070000    -0.054517   
C62      C      0.628929035000     0.847764430000     0.913334070000    -0.054517   
C63      C      0.163808985000     0.315455100000     0.349970900000    -0.038961   
C63      C      0.163808985000     0.315455100000     0.849970900000    -0.038961   
C63      C      0.163808985000     0.815455100000     0.349970900000    -0.038961   
C63      C      0.163808985000     0.815455100000     0.849970900000    -0.038961   
C63      C      0.663808985000     0.315455100000     0.349970900000    -0.038961   
C63      C      0.663808985000     0.315455100000     0.849970900000    -0.038961   
C63      C      0.663808985000     0.815455100000     0.349970900000    -0.038961   
C63      C      0.663808985000     0.815455100000     0.849970900000    -0.038961   
C64      C      0.108345420000     0.343081550000     0.357251700000    -0.232972   
C64      C      0.108345420000     0.343081550000     0.857251700000    -0.232972   
C64      C      0.108345420000     0.843081550000     0.357251700000    -0.232972   
C64      C      0.108345420000     0.843081550000     0.857251700000    -0.232972   
C64      C      0.608345420000     0.343081550000     0.357251700000    -0.232972   
C64      C      0.608345420000     0.343081550000     0.857251700000    -0.232972   
C64      C      0.608345420000     0.843081550000     0.357251700000    -0.232972   
C64      C      0.608345420000     0.843081550000     0.857251700000    -0.232972   
C65      C      0.184393800000     0.320138350000     0.406059450000    -0.226058   
C65      C      0.184393800000     0.320138350000     0.906059450000    -0.226058   
C65      C      0.184393800000     0.820138350000     0.406059450000    -0.226058   
C65      C      0.184393800000     0.820138350000     0.906059450000    -0.226058   
C65      C      0.684393800000     0.320138350000     0.406059450000    -0.226058   
C65      C      0.684393800000     0.320138350000     0.906059450000    -0.226058   
C65      C      0.684393800000     0.820138350000     0.406059450000    -0.226058   
C65      C      0.684393800000     0.820138350000     0.906059450000    -0.226058   
C66      C      0.151036085000     0.388273330000     0.383168050000    -0.300995   
C66      C      0.151036085000     0.388273330000     0.883168050000    -0.300995   
C66      C      0.151036085000     0.888273330000     0.383168050000    -0.300995   
C66      C      0.151036085000     0.888273330000     0.883168050000    -0.300995   
C66      C      0.651036085000     0.388273330000     0.383168050000    -0.300995   
C66      C      0.651036085000     0.388273330000     0.883168050000    -0.300995   
C66      C      0.651036085000     0.888273330000     0.383168050000    -0.300995   
C66      C      0.651036085000     0.888273330000     0.883168050000    -0.300995   
C67      C      0.141702385000     0.274952380000     0.380137115000    -0.359998   
C67      C      0.141702385000     0.274952380000     0.880137115000    -0.359998   
C67      C      0.141702385000     0.774952380000     0.380137115000    -0.359998   
C67      C      0.141702385000     0.774952380000     0.880137115000    -0.359998   
C67      C      0.641702385000     0.274952380000     0.380137115000    -0.359998   
C67      C      0.641702385000     0.274952380000     0.880137115000    -0.359998   
C67      C      0.641702385000     0.774952380000     0.380137115000    -0.359998   
C67      C      0.641702385000     0.774952380000     0.880137115000    -0.359998   
C68      C      0.155349030000     0.451360165000     0.384307685000    -0.400951   
C68      C      0.155349030000     0.451360165000     0.884307685000    -0.400951   
C68      C      0.155349030000     0.951360165000     0.384307685000    -0.400951   
C68      C      0.155349030000     0.951360165000     0.884307685000    -0.400951   
C68      C      0.655349030000     0.451360165000     0.384307685000    -0.400951   
C68      C      0.655349030000     0.451360165000     0.884307685000    -0.400951   
C68      C      0.655349030000     0.951360165000     0.384307685000    -0.400951   
C68      C      0.655349030000     0.951360165000     0.884307685000    -0.400951   
C69      C      0.137392685000     0.211878540000     0.379010050000    -0.400409   
C69      C      0.137392685000     0.211878540000     0.879010050000    -0.400409   
C69      C      0.137392685000     0.711878540000     0.379010050000    -0.400409   
C69      C      0.137392685000     0.711878540000     0.879010050000    -0.400409   
C69      C      0.637392685000     0.211878540000     0.379010050000    -0.400409   
C69      C      0.637392685000     0.211878540000     0.879010050000    -0.400409   
C69      C      0.637392685000     0.711878540000     0.379010050000    -0.400409   
C69      C      0.637392685000     0.711878540000     0.879010050000    -0.400409   
N70      N      0.036811170000     0.055942630000     0.261325950000    -0.086295   
N70      N      0.036811170000     0.055942630000     0.761325950000    -0.086295   
N70      N      0.036811170000     0.555942630000     0.261325950000    -0.086295   
N70      N      0.036811170000     0.555942630000     0.761325950000    -0.086295   
N70      N      0.536811170000     0.055942630000     0.261325950000    -0.086295   
N70      N      0.536811170000     0.055942630000     0.761325950000    -0.086295   
N70      N      0.536811170000     0.555942630000     0.261325950000    -0.086295   
N70      N      0.536811170000     0.555942630000     0.761325950000    -0.086295   
N71      N      0.210020250000     0.498087020000     0.473026150000    -0.076916   
N71      N      0.210020250000     0.498087020000     0.973026150000    -0.076916   
N71      N      0.210020250000     0.998087020000     0.473026150000    -0.076916   
N71      N      0.210020250000     0.998087020000     0.973026150000    -0.076916   
N71      N      0.710020250000     0.498087020000     0.473026150000    -0.076916   
N71      N      0.710020250000     0.498087020000     0.973026150000    -0.076916   
N71      N      0.710020250000     0.998087020000     0.473026150000    -0.076916   
N71      N      0.710020250000     0.998087020000     0.973026150000    -0.076916   
N72      N      0.061116260000     0.046470645000     0.188877925000    -0.08981    
N72      N      0.061116260000     0.046470645000     0.688877925000    -0.08981    
N72      N      0.061116260000     0.546470645000     0.188877925000    -0.08981    
N72      N      0.061116260000     0.546470645000     0.688877925000    -0.08981    
N72      N      0.561116260000     0.046470645000     0.188877925000    -0.08981    
N72      N      0.561116260000     0.046470645000     0.688877925000    -0.08981    
N72      N      0.561116260000     0.546470645000     0.188877925000    -0.08981    
N72      N      0.561116260000     0.546470645000     0.688877925000    -0.08981    
N73      N      0.243151750000     0.494650000000     0.045210740000    -0.134592   
N73      N      0.243151750000     0.494650000000     0.545210740000    -0.134592   
N73      N      0.243151750000     0.994650000000     0.045210740000    -0.134592   
N73      N      0.243151750000     0.994650000000     0.545210740000    -0.134592   
N73      N      0.743151750000     0.494650000000     0.045210740000    -0.134592   
N73      N      0.743151750000     0.494650000000     0.545210740000    -0.134592   
N73      N      0.743151750000     0.994650000000     0.045210740000    -0.134592   
N73      N      0.743151750000     0.994650000000     0.545210740000    -0.134592   
N74      N      0.158788385000     0.000596285000     0.385242400000    -0.083552   
N74      N      0.158788385000     0.000596285000     0.885242400000    -0.083552   
N74      N      0.158788385000     0.500596285000     0.385242400000    -0.083552   
N74      N      0.158788385000     0.500596285000     0.885242400000    -0.083552   
N74      N      0.658788385000     0.000596285000     0.385242400000    -0.083552   
N74      N      0.658788385000     0.000596285000     0.885242400000    -0.083552   
N74      N      0.658788385000     0.500596285000     0.385242400000    -0.083552   
N74      N      0.658788385000     0.500596285000     0.885242400000    -0.083552   
N75      N      0.133962500000     0.162650185000     0.378081350000    -0.093569   
N75      N      0.133962500000     0.162650185000     0.878081350000    -0.093569   
N75      N      0.133962500000     0.662650185000     0.378081350000    -0.093569   
N75      N      0.133962500000     0.662650185000     0.878081350000    -0.093569   
N75      N      0.633962500000     0.162650185000     0.378081350000    -0.093569   
N75      N      0.633962500000     0.162650185000     0.878081350000    -0.093569   
N75      N      0.633962500000     0.662650185000     0.378081350000    -0.093569   
N75      N      0.633962500000     0.662650185000     0.878081350000    -0.093569   
O76      O      0.112614430000     0.037884990000     0.432421925000    -0.104621   
O76      O      0.112614430000     0.037884990000     0.932421925000    -0.104621   
O76      O      0.112614430000     0.537884990000     0.432421925000    -0.104621   
O76      O      0.112614430000     0.537884990000     0.932421925000    -0.104621   
O76      O      0.612614430000     0.037884990000     0.432421925000    -0.104621   
O76      O      0.612614430000     0.037884990000     0.932421925000    -0.104621   
O76      O      0.612614430000     0.537884990000     0.432421925000    -0.104621   
O76      O      0.612614430000     0.537884990000     0.932421925000    -0.104621   
O77      O      0.178198175000     0.128379850000     0.329560580000    -0.090359   
O77      O      0.178198175000     0.128379850000     0.829560580000    -0.090359   
O77      O      0.178198175000     0.628379850000     0.329560580000    -0.090359   
O77      O      0.178198175000     0.628379850000     0.829560580000    -0.090359   
O77      O      0.678198175000     0.128379850000     0.329560580000    -0.090359   
O77      O      0.678198175000     0.128379850000     0.829560580000    -0.090359   
O77      O      0.678198175000     0.628379850000     0.329560580000    -0.090359   
O77      O      0.678198175000     0.628379850000     0.829560580000    -0.090359   
O78      O      0.178130390000     0.127383500000     0.435806050000    -0.219451   
O78      O      0.178130390000     0.127383500000     0.935806050000    -0.219451   
O78      O      0.178130390000     0.627383500000     0.435806050000    -0.219451   
O78      O      0.178130390000     0.627383500000     0.935806050000    -0.219451   
O78      O      0.678130390000     0.127383500000     0.435806050000    -0.219451   
O78      O      0.678130390000     0.127383500000     0.935806050000    -0.219451   
O78      O      0.678130390000     0.627383500000     0.435806050000    -0.219451   
O78      O      0.678130390000     0.627383500000     0.935806050000    -0.219451   
O79      O      0.112682210000     0.038881355000     0.326176450000    -0.198983   
O79      O      0.112682210000     0.038881355000     0.826176450000    -0.198983   
O79      O      0.112682210000     0.538881355000     0.326176450000    -0.198983   
O79      O      0.112682210000     0.538881355000     0.826176450000    -0.198983   
O79      O      0.612682210000     0.038881355000     0.326176450000    -0.198983   
O79      O      0.612682210000     0.038881355000     0.826176450000    -0.198983   
O79      O      0.612682210000     0.538881355000     0.326176450000    -0.198983   
O79      O      0.612682210000     0.538881355000     0.826176450000    -0.198983   
O80      O      0.023556030000     0.091348600000     0.284717850000    -0.170293   
O80      O      0.023556030000     0.091348600000     0.784717850000    -0.170293   
O80      O      0.023556030000     0.591348600000     0.284717850000    -0.170293   
O80      O      0.023556030000     0.591348600000     0.784717850000    -0.170293   
O80      O      0.523556030000     0.091348600000     0.284717850000    -0.170293   
O80      O      0.523556030000     0.091348600000     0.784717850000    -0.170293   
O80      O      0.523556030000     0.591348600000     0.284717850000    -0.170293   
O80      O      0.523556030000     0.591348600000     0.784717850000    -0.170293   
O81      O      0.490698900000     0.013873865000     0.247696890000    -0.185627   
O81      O      0.490698900000     0.013873865000     0.747696890000    -0.185627   
O81      O      0.490698900000     0.513873865000     0.247696890000    -0.185627   
O81      O      0.490698900000     0.513873865000     0.747696890000    -0.185627   
O81      O      0.990698900000     0.013873865000     0.247696890000    -0.185627   
O81      O      0.990698900000     0.013873865000     0.747696890000    -0.185627   
O81      O      0.990698900000     0.513873865000     0.247696890000    -0.185627   
O81      O      0.990698900000     0.513873865000     0.747696890000    -0.185627   
O82      O      0.166910600000     0.455783200000     0.457271100000    -0.304432   
O82      O      0.166910600000     0.455783200000     0.957271100000    -0.304432   
O82      O      0.166910600000     0.955783200000     0.457271100000    -0.304432   
O82      O      0.166910600000     0.955783200000     0.957271100000    -0.304432   
O82      O      0.666910600000     0.455783200000     0.457271100000    -0.304432   
O82      O      0.666910600000     0.455783200000     0.957271100000    -0.304432   
O82      O      0.666910600000     0.955783200000     0.457271100000    -0.304432   
O82      O      0.666910600000     0.955783200000     0.957271100000    -0.304432   
O83      O      0.270386725000     0.000878095000     0.469743200000    -0.323726   
O83      O      0.270386725000     0.000878095000     0.969743200000    -0.323726   
O83      O      0.270386725000     0.500878095000     0.469743200000    -0.323726   
O83      O      0.270386725000     0.500878095000     0.969743200000    -0.323726   
O83      O      0.770386725000     0.000878095000     0.469743200000    -0.323726   
O83      O      0.770386725000     0.000878095000     0.969743200000    -0.323726   
O83      O      0.770386725000     0.500878095000     0.469743200000    -0.323726   
O83      O      0.770386725000     0.500878095000     0.969743200000    -0.323726   
O84      O      0.033945290000     0.087185105000     0.181925265000    -0.329799   
O84      O      0.033945290000     0.087185105000     0.681925265000    -0.329799   
O84      O      0.033945290000     0.587185105000     0.181925265000    -0.329799   
O84      O      0.033945290000     0.587185105000     0.681925265000    -0.329799   
O84      O      0.533945290000     0.087185105000     0.181925265000    -0.329799   
O84      O      0.533945290000     0.087185105000     0.681925265000    -0.329799   
O84      O      0.533945290000     0.587185105000     0.181925265000    -0.329799   
O84      O      0.533945290000     0.587185105000     0.681925265000    -0.329799   
O85      O      0.035009045000     0.494300785000     0.176447900000    -0.177131   
O85      O      0.035009045000     0.494300785000     0.676447900000    -0.177131   
O85      O      0.035009045000     0.994300785000     0.176447900000    -0.177131   
O85      O      0.035009045000     0.994300785000     0.676447900000    -0.177131   
O85      O      0.535009045000     0.494300785000     0.176447900000    -0.177131   
O85      O      0.535009045000     0.494300785000     0.676447900000    -0.177131   
O85      O      0.535009045000     0.994300785000     0.176447900000    -0.177131   
O85      O      0.535009045000     0.994300785000     0.676447900000    -0.177131   
O86      O      0.292308270000     0.011186105000     0.067227320000    -0.282661   
O86      O      0.292308270000     0.011186105000     0.567227320000    -0.282661   
O86      O      0.292308270000     0.511186105000     0.067227320000    -0.282661   
O86      O      0.292308270000     0.511186105000     0.567227320000    -0.282661   
O86      O      0.792308270000     0.011186105000     0.067227320000    -0.282661   
O86      O      0.792308270000     0.011186105000     0.567227320000    -0.282661   
O86      O      0.792308270000     0.511186105000     0.067227320000    -0.282661   
O86      O      0.792308270000     0.511186105000     0.567227320000    -0.282661   
O87      O      0.224876270000     0.441042700000     0.033843765000    -0.297115   
O87      O      0.224876270000     0.441042700000     0.533843765000    -0.297115   
O87      O      0.224876270000     0.941042700000     0.033843765000    -0.297115   
O87      O      0.224876270000     0.941042700000     0.533843765000    -0.297115   
O87      O      0.724876270000     0.441042700000     0.033843765000    -0.297115   
O87      O      0.724876270000     0.441042700000     0.533843765000    -0.297115   
O87      O      0.724876270000     0.941042700000     0.033843765000    -0.297115   
O87      O      0.724876270000     0.941042700000     0.533843765000    -0.297115   
O88      O      0.274956700000     0.139196710000     0.341475280000     1.18028    
O88      O      0.274956700000     0.139196710000     0.841475280000     1.18028    
O88      O      0.274956700000     0.639196710000     0.341475280000     1.18028    
O88      O      0.274956700000     0.639196710000     0.841475280000     1.18028    
O88      O      0.774956700000     0.139196710000     0.341475280000     1.18028    
O88      O      0.774956700000     0.139196710000     0.841475280000     1.18028    
O88      O      0.774956700000     0.639196710000     0.341475280000     1.18028    
O88      O      0.774956700000     0.639196710000     0.841475280000     1.18028    
O89      O      0.017382145000     0.025635445000     0.421262900000     1.1825     
O89      O      0.017382145000     0.025635445000     0.921262900000     1.1825     
O89      O      0.017382145000     0.525635445000     0.421262900000     1.1825     
O89      O      0.017382145000     0.525635445000     0.921262900000     1.1825     
O89      O      0.517382145000     0.025635445000     0.421262900000     1.1825     
O89      O      0.517382145000     0.025635445000     0.921262900000     1.1825     
O89      O      0.517382145000     0.525635445000     0.421262900000     1.1825     
O89      O      0.517382145000     0.525635445000     0.921262900000     1.1825     
O90      O      0.238189115000     0.042635980000     0.346724480000     0.063159   
O90      O      0.238189115000     0.042635980000     0.846724480000     0.063159   
O90      O      0.238189115000     0.542635980000     0.346724480000     0.063159   
O90      O      0.238189115000     0.542635980000     0.846724480000     0.063159   
O90      O      0.738189115000     0.042635980000     0.346724480000     0.063159   
O90      O      0.738189115000     0.042635980000     0.846724480000     0.063159   
O90      O      0.738189115000     0.542635980000     0.346724480000     0.063159   
O90      O      0.738189115000     0.542635980000     0.846724480000     0.063159   
O91      O      0.054149625000     0.122196140000     0.416013650000     0.058065   
O91      O      0.054149625000     0.122196140000     0.916013650000     0.058065   
O91      O      0.054149625000     0.622196140000     0.416013650000     0.058065   
O91      O      0.054149625000     0.622196140000     0.916013650000     0.058065   
O91      O      0.554149625000     0.122196140000     0.416013650000     0.058065   
O91      O      0.554149625000     0.122196140000     0.916013650000     0.058065   
O91      O      0.554149625000     0.622196140000     0.416013650000     0.058065   
O91      O      0.554149625000     0.622196140000     0.916013650000     0.058065   
O92      O      0.055076895000     0.174987165000     0.364823550000     0.065504   
O92      O      0.055076895000     0.174987165000     0.864823550000     0.065504   
O92      O      0.055076895000     0.674987165000     0.364823550000     0.065504   
O92      O      0.055076895000     0.674987165000     0.864823550000     0.065504   
O92      O      0.555076895000     0.174987165000     0.364823550000     0.065504   
O92      O      0.555076895000     0.174987165000     0.864823550000     0.065504   
O92      O      0.555076895000     0.674987165000     0.364823550000     0.065504   
O92      O      0.555076895000     0.674987165000     0.864823550000     0.065504   
O93      O      0.225367070000     0.478693365000     0.391463350000     0.061752   
O93      O      0.225367070000     0.478693365000     0.891463350000     0.061752   
O93      O      0.225367070000     0.978693365000     0.391463350000     0.061752   
O93      O      0.225367070000     0.978693365000     0.891463350000     0.061752   
O93      O      0.725367070000     0.478693365000     0.391463350000     0.061752   
O93      O      0.725367070000     0.478693365000     0.891463350000     0.061752   
O93      O      0.725367070000     0.978693365000     0.391463350000     0.061752   
O93      O      0.725367070000     0.978693365000     0.891463350000     0.061752   
O94      O      0.349889575000     0.214788230000     0.405275165000     0.077565   
O94      O      0.349889575000     0.214788230000     0.905275165000     0.077565   
O94      O      0.349889575000     0.714788230000     0.405275165000     0.077565   
O94      O      0.349889575000     0.714788230000     0.905275165000     0.077565   
O94      O      0.849889575000     0.214788230000     0.405275165000     0.077565   
O94      O      0.849889575000     0.214788230000     0.905275165000     0.077565   
O94      O      0.849889575000     0.714788230000     0.405275165000     0.077565   
O94      O      0.849889575000     0.714788230000     0.905275165000     0.077565   
O95      O      0.452815150000     0.465108450000     0.360906150000     0.054962   
O95      O      0.452815150000     0.465108450000     0.860906150000     0.054962   
O95      O      0.452815150000     0.965108450000     0.360906150000     0.054962   
O95      O      0.452815150000     0.965108450000     0.860906150000     0.054962   
O95      O      0.952815150000     0.465108450000     0.360906150000     0.054962   
O95      O      0.952815150000     0.465108450000     0.860906150000     0.054962   
O95      O      0.952815150000     0.965108450000     0.360906150000     0.054962   
O95      O      0.952815150000     0.965108450000     0.860906150000     0.054962   
O96      O      0.224752515000     0.307304085000     0.431980135000     0.068171   
O96      O      0.224752515000     0.307304085000     0.931980135000     0.068171   
O96      O      0.224752515000     0.807304085000     0.431980135000     0.068171   
O96      O      0.224752515000     0.807304085000     0.931980135000     0.068171   
O96      O      0.724752515000     0.307304085000     0.431980135000     0.068171   
O96      O      0.724752515000     0.307304085000     0.931980135000     0.068171   
O96      O      0.724752515000     0.807304085000     0.431980135000     0.068171   
O96      O      0.724752515000     0.807304085000     0.931980135000     0.068171   
O97      O      0.067979090000     0.355914450000     0.331331225000     0.055619   
O97      O      0.067979090000     0.355914450000     0.831331225000     0.055619   
O97      O      0.067979090000     0.855914450000     0.331331225000     0.055619   
O97      O      0.067979090000     0.855914450000     0.831331225000     0.055619   
O97      O      0.567979090000     0.355914450000     0.331331225000     0.055619   
O97      O      0.567979090000     0.355914450000     0.831331225000     0.055619   
O97      O      0.567979090000     0.855914450000     0.331331225000     0.055619   
O97      O      0.567979090000     0.855914450000     0.831331225000     0.055619   


