data_sample_1_relaxed_charged

_audit_creation_method RASPA-1.0
_audit_creation_date 2026-2-5
_audit_author_name ''

_cell_length_a    26.6584
_cell_length_b    29.9903
_cell_length_c    32.0969
_cell_angle_alpha 90.041
_cell_angle_beta  90.5085
_cell_angle_gamma 90.1833
_cell_volume      25660.1

_symmetry_cell_setting          triclinic
_symmetry_space_group_name_Hall 'P 1'
_symmetry_space_group_name_H-M  'P 1'
_symmetry_Int_Tables_number     1

_symmetry_equiv_pos_as_xyz 'x,y,z'

loop_
_atom_site_label
_atom_site_type_symbol
_atom_site_fract_x
_atom_site_fract_y
_atom_site_fract_z
_atom_site_charge
Zn0      Zn     0.015860500000     0.396586700000     0.366784950000     1.11476    
Zn1      Zn     0.479714780000     0.340953500000     0.438894800000     1.11321    
H2       H      0.486249200000     0.429954530000     0.140259340000     0.042952   
H3       H      0.088679850000     0.342249570000     0.180099710000     0.039373   
H4       H      0.012547550000     0.275992570000     0.187230350000     0.041979   
H5       H      0.048736215000     0.366525400000     0.100924050000     0.035706   
H6       H      0.410225800000     0.363953830000     0.147744030000     0.039713   
H7       H      0.450106085000     0.339739350000     0.226770965000     0.028601   
H8       H      0.426893750000     0.177478650000     0.465293650000     0.162652   
H9       H      0.069218280000     0.059602380000     0.339099615000     0.16663    
H10      H      0.054701805000     0.209765865000     0.368927500000     0.134598   
H11      H      0.441406000000     0.027358275000     0.435474400000     0.135529   
H12      H      0.231954100000     0.408548800000     0.375187950000     0.046793   
H13      H      0.264972900000     0.330627470000     0.430850775000     0.045227   
C14      C      0.006738305000     0.310910670000     0.176839260000    -0.032455   
C15      C      0.048317315000     0.346930250000     0.172581135000    -0.030767   
C16      C      0.038711190000     0.439347700000     0.252949500000    -0.0962     
C17      C      0.454987750000     0.275221500000     0.069914245000    -0.100018   
C18      C      0.472296625000     0.345541775000     0.198173910000    -0.037587   
C19      C      0.013590875000     0.381021250000     0.193313315000     0.007501   
C20      C      0.450617285000     0.359239725000     0.155147165000    -0.028284   
C21      C      0.485241450000     0.325123520000     0.134340750000     0.005207   
C22      C      0.492092075000     0.395085485000     0.150776685000    -0.032853   
C23      C      0.026551245000     0.360609000000     0.129528760000    -0.033114   
C24      C      0.028154255000     0.412954100000     0.225882070000     0.016334   
C25      C      0.438866050000     0.254605325000     0.031713990000     0.285881   
C26      C      0.468769970000     0.296155335000     0.100008980000     0.035445   
C27      C      0.049389960000     0.470093850000     0.286173050000     0.215432   
C28      C      0.003247200000     0.071873210000     0.393513770000    -0.104121   
C29      C      0.494237050000     0.165077775000     0.412027570000    -0.102319   
C30      C      0.467631725000     0.087182560000     0.422986925000     0.102842   
C31      C      0.029718220000     0.149799735000     0.382413300000     0.102037   
C32      C      0.034158945000     0.103862980000     0.373288600000     0.120381   
C33      C      0.463192850000     0.133100165000     0.432107850000     0.119408   
C34      C      0.008050205000     0.023895875000     0.384223580000     0.12311    
C35      C      0.489771515000     0.212976770000     0.421781870000     0.12006    
C36      C      0.088260635000     0.336140450000     0.441599650000     0.283766   
C37      C      0.408666400000     0.403035880000     0.364439130000     0.284356   
C38      C      0.141192270000     0.343099535000     0.431896865000    -0.120019   
C39      C      0.355734800000     0.396076770000     0.374141870000    -0.120725   
C40      C      0.239294335000     0.353668950000     0.415724900000    -0.055534   
C41      C      0.257632675000     0.385507250000     0.390313800000    -0.056015   
C42      C      0.311386350000     0.390590580000     0.381992450000     0.052496   
C43      C      0.185540750000     0.348585725000     0.424046300000     0.052027   
N44      N      0.486157000000     0.250888950000     0.429506650000    -0.213316   
N45      N      0.011772990000     0.485907585000     0.376871825000    -0.222297   
O46      O      0.395295250000     0.263118750000     0.017999685000    -0.252925   
O47      O      0.471124100000     0.235130725000     0.009189275000    -0.233976   
O48      O      0.096565900000     0.476503750000     0.294831575000    -0.225368   
O49      O      0.020616470000     0.004614235000     0.287494930000    -0.200772   
O50      O      0.427520425000     0.144821780000     0.461219100000    -0.253861   
O51      O      0.069671750000     0.092121660000     0.344052165000    -0.251775   
O52      O      0.061326205000     0.178450550000     0.361200185000    -0.250029   
O53      O      0.435857600000     0.058579060000     0.444088130000    -0.251794   
O54      O      0.055343530000     0.359141700000     0.418666100000    -0.58977    
O55      O      0.441583500000     0.380034550000     0.387372600000    -0.597375   
O56      O      0.418892550000     0.431821200000     0.333922550000    -0.290261   
O57      O      0.078034385000     0.307355015000     0.472116170000    -0.290481   
Zn0      Zn     0.015860500000     0.396586700000     0.866784950000     1.11476    
Zn1      Zn     0.479714780000     0.340953500000     0.938894800000     1.11321    
H2       H      0.486249200000     0.429954530000     0.640259340000     0.042952   
H3       H      0.088679850000     0.342249570000     0.680099710000     0.039373   
H4       H      0.012547550000     0.275992570000     0.687230350000     0.041979   
H5       H      0.048736215000     0.366525400000     0.600924050000     0.035706   
H6       H      0.410225800000     0.363953830000     0.647744030000     0.039713   
H7       H      0.450106085000     0.339739350000     0.726770965000     0.028601   
H8       H      0.426893750000     0.177478650000     0.965293650000     0.162652   
H9       H      0.069218280000     0.059602380000     0.839099615000     0.16663    
H10      H      0.054701805000     0.209765865000     0.868927500000     0.134598   
H11      H      0.441406000000     0.027358275000     0.935474400000     0.135529   
H12      H      0.231954100000     0.408548800000     0.875187950000     0.046793   
H13      H      0.264972900000     0.330627470000     0.930850775000     0.045227   
C14      C      0.006738305000     0.310910670000     0.676839260000    -0.032455   
C15      C      0.048317315000     0.346930250000     0.672581135000    -0.030767   
C16      C      0.038711190000     0.439347700000     0.752949500000    -0.0962     
C17      C      0.454987750000     0.275221500000     0.569914245000    -0.100018   
C18      C      0.472296625000     0.345541775000     0.698173910000    -0.037587   
C19      C      0.013590875000     0.381021250000     0.693313315000     0.007501   
C20      C      0.450617285000     0.359239725000     0.655147165000    -0.028284   
C21      C      0.485241450000     0.325123520000     0.634340750000     0.005207   
C22      C      0.492092075000     0.395085485000     0.650776685000    -0.032853   
C23      C      0.026551245000     0.360609000000     0.629528760000    -0.033114   
C24      C      0.028154255000     0.412954100000     0.725882070000     0.016334   
C25      C      0.438866050000     0.254605325000     0.531713990000     0.285881   
C26      C      0.468769970000     0.296155335000     0.600008980000     0.035445   
C27      C      0.049389960000     0.470093850000     0.786173050000     0.215432   
C28      C      0.003247200000     0.071873210000     0.893513770000    -0.104121   
C29      C      0.494237050000     0.165077775000     0.912027570000    -0.102319   
C30      C      0.467631725000     0.087182560000     0.922986925000     0.102842   
C31      C      0.029718220000     0.149799735000     0.882413300000     0.102037   
C32      C      0.034158945000     0.103862980000     0.873288600000     0.120381   
C33      C      0.463192850000     0.133100165000     0.932107850000     0.119408   
C34      C      0.008050205000     0.023895875000     0.884223580000     0.12311    
C35      C      0.489771515000     0.212976770000     0.921781870000     0.12006    
C36      C      0.088260635000     0.336140450000     0.941599650000     0.283766   
C37      C      0.408666400000     0.403035880000     0.864439130000     0.284356   
C38      C      0.141192270000     0.343099535000     0.931896865000    -0.120019   
C39      C      0.355734800000     0.396076770000     0.874141870000    -0.120725   
C40      C      0.239294335000     0.353668950000     0.915724900000    -0.055534   
C41      C      0.257632675000     0.385507250000     0.890313800000    -0.056015   
C42      C      0.311386350000     0.390590580000     0.881992450000     0.052496   
C43      C      0.185540750000     0.348585725000     0.924046300000     0.052027   
N44      N      0.486157000000     0.250888950000     0.929506650000    -0.213316   
N45      N      0.011772990000     0.485907585000     0.876871825000    -0.222297   
O46      O      0.395295250000     0.263118750000     0.517999685000    -0.252925   
O47      O      0.471124100000     0.235130725000     0.509189275000    -0.233976   
O48      O      0.096565900000     0.476503750000     0.794831575000    -0.225368   
O49      O      0.020616470000     0.004614235000     0.787494930000    -0.200772   
O50      O      0.427520425000     0.144821780000     0.961219100000    -0.253861   
O51      O      0.069671750000     0.092121660000     0.844052165000    -0.251775   
O52      O      0.061326205000     0.178450550000     0.861200185000    -0.250029   
O53      O      0.435857600000     0.058579060000     0.944088130000    -0.251794   
O54      O      0.055343530000     0.359141700000     0.918666100000    -0.58977    
O55      O      0.441583500000     0.380034550000     0.887372600000    -0.597375   
O56      O      0.418892550000     0.431821200000     0.833922550000    -0.290261   
O57      O      0.078034385000     0.307355015000     0.972116170000    -0.290481   
Zn0      Zn     0.015860500000     0.896586700000     0.366784950000     1.11476    
Zn1      Zn     0.479714780000     0.840953500000     0.438894800000     1.11321    
H2       H      0.486249200000     0.929954530000     0.140259340000     0.042952   
H3       H      0.088679850000     0.842249570000     0.180099710000     0.039373   
H4       H      0.012547550000     0.775992570000     0.187230350000     0.041979   
H5       H      0.048736215000     0.866525400000     0.100924050000     0.035706   
H6       H      0.410225800000     0.863953830000     0.147744030000     0.039713   
H7       H      0.450106085000     0.839739350000     0.226770965000     0.028601   
H8       H      0.426893750000     0.677478650000     0.465293650000     0.162652   
H9       H      0.069218280000     0.559602380000     0.339099615000     0.16663    
H10      H      0.054701805000     0.709765865000     0.368927500000     0.134598   
H11      H      0.441406000000     0.527358275000     0.435474400000     0.135529   
H12      H      0.231954100000     0.908548800000     0.375187950000     0.046793   
H13      H      0.264972900000     0.830627470000     0.430850775000     0.045227   
C14      C      0.006738305000     0.810910670000     0.176839260000    -0.032455   
C15      C      0.048317315000     0.846930250000     0.172581135000    -0.030767   
C16      C      0.038711190000     0.939347700000     0.252949500000    -0.0962     
C17      C      0.454987750000     0.775221500000     0.069914245000    -0.100018   
C18      C      0.472296625000     0.845541775000     0.198173910000    -0.037587   
C19      C      0.013590875000     0.881021250000     0.193313315000     0.007501   
C20      C      0.450617285000     0.859239725000     0.155147165000    -0.028284   
C21      C      0.485241450000     0.825123520000     0.134340750000     0.005207   
C22      C      0.492092075000     0.895085485000     0.150776685000    -0.032853   
C23      C      0.026551245000     0.860609000000     0.129528760000    -0.033114   
C24      C      0.028154255000     0.912954100000     0.225882070000     0.016334   
C25      C      0.438866050000     0.754605325000     0.031713990000     0.285881   
C26      C      0.468769970000     0.796155335000     0.100008980000     0.035445   
C27      C      0.049389960000     0.970093850000     0.286173050000     0.215432   
C28      C      0.003247200000     0.571873210000     0.393513770000    -0.104121   
C29      C      0.494237050000     0.665077775000     0.412027570000    -0.102319   
C30      C      0.467631725000     0.587182560000     0.422986925000     0.102842   
C31      C      0.029718220000     0.649799735000     0.382413300000     0.102037   
C32      C      0.034158945000     0.603862980000     0.373288600000     0.120381   
C33      C      0.463192850000     0.633100165000     0.432107850000     0.119408   
C34      C      0.008050205000     0.523895875000     0.384223580000     0.12311    
C35      C      0.489771515000     0.712976770000     0.421781870000     0.12006    
C36      C      0.088260635000     0.836140450000     0.441599650000     0.283766   
C37      C      0.408666400000     0.903035880000     0.364439130000     0.284356   
C38      C      0.141192270000     0.843099535000     0.431896865000    -0.120019   
C39      C      0.355734800000     0.896076770000     0.374141870000    -0.120725   
C40      C      0.239294335000     0.853668950000     0.415724900000    -0.055534   
C41      C      0.257632675000     0.885507250000     0.390313800000    -0.056015   
C42      C      0.311386350000     0.890590580000     0.381992450000     0.052496   
C43      C      0.185540750000     0.848585725000     0.424046300000     0.052027   
N44      N      0.486157000000     0.750888950000     0.429506650000    -0.213316   
N45      N      0.011772990000     0.985907585000     0.376871825000    -0.222297   
O46      O      0.395295250000     0.763118750000     0.017999685000    -0.252925   
O47      O      0.471124100000     0.735130725000     0.009189275000    -0.233976   
O48      O      0.096565900000     0.976503750000     0.294831575000    -0.225368   
O49      O      0.020616470000     0.504614235000     0.287494930000    -0.200772   
O50      O      0.427520425000     0.644821780000     0.461219100000    -0.253861   
O51      O      0.069671750000     0.592121660000     0.344052165000    -0.251775   
O52      O      0.061326205000     0.678450550000     0.361200185000    -0.250029   
O53      O      0.435857600000     0.558579060000     0.444088130000    -0.251794   
O54      O      0.055343530000     0.859141700000     0.418666100000    -0.58977    
O55      O      0.441583500000     0.880034550000     0.387372600000    -0.597375   
O56      O      0.418892550000     0.931821200000     0.333922550000    -0.290261   
O57      O      0.078034385000     0.807355015000     0.472116170000    -0.290481   
Zn0      Zn     0.015860500000     0.896586700000     0.866784950000     1.11476    
Zn1      Zn     0.479714780000     0.840953500000     0.938894800000     1.11321    
H2       H      0.486249200000     0.929954530000     0.640259340000     0.042952   
H3       H      0.088679850000     0.842249570000     0.680099710000     0.039373   
H4       H      0.012547550000     0.775992570000     0.687230350000     0.041979   
H5       H      0.048736215000     0.866525400000     0.600924050000     0.035706   
H6       H      0.410225800000     0.863953830000     0.647744030000     0.039713   
H7       H      0.450106085000     0.839739350000     0.726770965000     0.028601   
H8       H      0.426893750000     0.677478650000     0.965293650000     0.162652   
H9       H      0.069218280000     0.559602380000     0.839099615000     0.16663    
H10      H      0.054701805000     0.709765865000     0.868927500000     0.134598   
H11      H      0.441406000000     0.527358275000     0.935474400000     0.135529   
H12      H      0.231954100000     0.908548800000     0.875187950000     0.046793   
H13      H      0.264972900000     0.830627470000     0.930850775000     0.045227   
C14      C      0.006738305000     0.810910670000     0.676839260000    -0.032455   
C15      C      0.048317315000     0.846930250000     0.672581135000    -0.030767   
C16      C      0.038711190000     0.939347700000     0.752949500000    -0.0962     
C17      C      0.454987750000     0.775221500000     0.569914245000    -0.100018   
C18      C      0.472296625000     0.845541775000     0.698173910000    -0.037587   
C19      C      0.013590875000     0.881021250000     0.693313315000     0.007501   
C20      C      0.450617285000     0.859239725000     0.655147165000    -0.028284   
C21      C      0.485241450000     0.825123520000     0.634340750000     0.005207   
C22      C      0.492092075000     0.895085485000     0.650776685000    -0.032853   
C23      C      0.026551245000     0.860609000000     0.629528760000    -0.033114   
C24      C      0.028154255000     0.912954100000     0.725882070000     0.016334   
C25      C      0.438866050000     0.754605325000     0.531713990000     0.285881   
C26      C      0.468769970000     0.796155335000     0.600008980000     0.035445   
C27      C      0.049389960000     0.970093850000     0.786173050000     0.215432   
C28      C      0.003247200000     0.571873210000     0.893513770000    -0.104121   
C29      C      0.494237050000     0.665077775000     0.912027570000    -0.102319   
C30      C      0.467631725000     0.587182560000     0.922986925000     0.102842   
C31      C      0.029718220000     0.649799735000     0.882413300000     0.102037   
C32      C      0.034158945000     0.603862980000     0.873288600000     0.120381   
C33      C      0.463192850000     0.633100165000     0.932107850000     0.119408   
C34      C      0.008050205000     0.523895875000     0.884223580000     0.12311    
C35      C      0.489771515000     0.712976770000     0.921781870000     0.12006    
C36      C      0.088260635000     0.836140450000     0.941599650000     0.283766   
C37      C      0.408666400000     0.903035880000     0.864439130000     0.284356   
C38      C      0.141192270000     0.843099535000     0.931896865000    -0.120019   
C39      C      0.355734800000     0.896076770000     0.874141870000    -0.120725   
C40      C      0.239294335000     0.853668950000     0.915724900000    -0.055534   
C41      C      0.257632675000     0.885507250000     0.890313800000    -0.056015   
C42      C      0.311386350000     0.890590580000     0.881992450000     0.052496   
C43      C      0.185540750000     0.848585725000     0.924046300000     0.052027   
N44      N      0.486157000000     0.750888950000     0.929506650000    -0.213316   
N45      N      0.011772990000     0.985907585000     0.876871825000    -0.222297   
O46      O      0.395295250000     0.763118750000     0.517999685000    -0.252925   
O47      O      0.471124100000     0.735130725000     0.509189275000    -0.233976   
O48      O      0.096565900000     0.976503750000     0.794831575000    -0.225368   
O49      O      0.020616470000     0.504614235000     0.787494930000    -0.200772   
O50      O      0.427520425000     0.644821780000     0.961219100000    -0.253861   
O51      O      0.069671750000     0.592121660000     0.844052165000    -0.251775   
O52      O      0.061326205000     0.678450550000     0.861200185000    -0.250029   
O53      O      0.435857600000     0.558579060000     0.944088130000    -0.251794   
O54      O      0.055343530000     0.859141700000     0.918666100000    -0.58977    
O55      O      0.441583500000     0.880034550000     0.887372600000    -0.597375   
O56      O      0.418892550000     0.931821200000     0.833922550000    -0.290261   
O57      O      0.078034385000     0.807355015000     0.972116170000    -0.290481   
Zn0      Zn     0.515860500000     0.396586700000     0.366784950000     1.11476    
Zn1      Zn     0.979714780000     0.340953500000     0.438894800000     1.11321    
H2       H      0.986249200000     0.429954530000     0.140259340000     0.042952   
H3       H      0.588679850000     0.342249570000     0.180099710000     0.039373   
H4       H      0.512547550000     0.275992570000     0.187230350000     0.041979   
H5       H      0.548736215000     0.366525400000     0.100924050000     0.035706   
H6       H      0.910225800000     0.363953830000     0.147744030000     0.039713   
H7       H      0.950106085000     0.339739350000     0.226770965000     0.028601   
H8       H      0.926893750000     0.177478650000     0.465293650000     0.162652   
H9       H      0.569218280000     0.059602380000     0.339099615000     0.16663    
H10      H      0.554701805000     0.209765865000     0.368927500000     0.134598   
H11      H      0.941406000000     0.027358275000     0.435474400000     0.135529   
H12      H      0.731954100000     0.408548800000     0.375187950000     0.046793   
H13      H      0.764972900000     0.330627470000     0.430850775000     0.045227   
C14      C      0.506738305000     0.310910670000     0.176839260000    -0.032455   
C15      C      0.548317315000     0.346930250000     0.172581135000    -0.030767   
C16      C      0.538711190000     0.439347700000     0.252949500000    -0.0962     
C17      C      0.954987750000     0.275221500000     0.069914245000    -0.100018   
C18      C      0.972296625000     0.345541775000     0.198173910000    -0.037587   
C19      C      0.513590875000     0.381021250000     0.193313315000     0.007501   
C20      C      0.950617285000     0.359239725000     0.155147165000    -0.028284   
C21      C      0.985241450000     0.325123520000     0.134340750000     0.005207   
C22      C      0.992092075000     0.395085485000     0.150776685000    -0.032853   
C23      C      0.526551245000     0.360609000000     0.129528760000    -0.033114   
C24      C      0.528154255000     0.412954100000     0.225882070000     0.016334   
C25      C      0.938866050000     0.254605325000     0.031713990000     0.285881   
C26      C      0.968769970000     0.296155335000     0.100008980000     0.035445   
C27      C      0.549389960000     0.470093850000     0.286173050000     0.215432   
C28      C      0.503247200000     0.071873210000     0.393513770000    -0.104121   
C29      C      0.994237050000     0.165077775000     0.412027570000    -0.102319   
C30      C      0.967631725000     0.087182560000     0.422986925000     0.102842   
C31      C      0.529718220000     0.149799735000     0.382413300000     0.102037   
C32      C      0.534158945000     0.103862980000     0.373288600000     0.120381   
C33      C      0.963192850000     0.133100165000     0.432107850000     0.119408   
C34      C      0.508050205000     0.023895875000     0.384223580000     0.12311    
C35      C      0.989771515000     0.212976770000     0.421781870000     0.12006    
C36      C      0.588260635000     0.336140450000     0.441599650000     0.283766   
C37      C      0.908666400000     0.403035880000     0.364439130000     0.284356   
C38      C      0.641192270000     0.343099535000     0.431896865000    -0.120019   
C39      C      0.855734800000     0.396076770000     0.374141870000    -0.120725   
C40      C      0.739294335000     0.353668950000     0.415724900000    -0.055534   
C41      C      0.757632675000     0.385507250000     0.390313800000    -0.056015   
C42      C      0.811386350000     0.390590580000     0.381992450000     0.052496   
C43      C      0.685540750000     0.348585725000     0.424046300000     0.052027   
N44      N      0.986157000000     0.250888950000     0.429506650000    -0.213316   
N45      N      0.511772990000     0.485907585000     0.376871825000    -0.222297   
O46      O      0.895295250000     0.263118750000     0.017999685000    -0.252925   
O47      O      0.971124100000     0.235130725000     0.009189275000    -0.233976   
O48      O      0.596565900000     0.476503750000     0.294831575000    -0.225368   
O49      O      0.520616470000     0.004614235000     0.287494930000    -0.200772   
O50      O      0.927520425000     0.144821780000     0.461219100000    -0.253861   
O51      O      0.569671750000     0.092121660000     0.344052165000    -0.251775   
O52      O      0.561326205000     0.178450550000     0.361200185000    -0.250029   
O53      O      0.935857600000     0.058579060000     0.444088130000    -0.251794   
O54      O      0.555343530000     0.359141700000     0.418666100000    -0.58977    
O55      O      0.941583500000     0.380034550000     0.387372600000    -0.597375   
O56      O      0.918892550000     0.431821200000     0.333922550000    -0.290261   
O57      O      0.578034385000     0.307355015000     0.472116170000    -0.290481   
Zn0      Zn     0.515860500000     0.396586700000     0.866784950000     1.11476    
Zn1      Zn     0.979714780000     0.340953500000     0.938894800000     1.11321    
H2       H      0.986249200000     0.429954530000     0.640259340000     0.042952   
H3       H      0.588679850000     0.342249570000     0.680099710000     0.039373   
H4       H      0.512547550000     0.275992570000     0.687230350000     0.041979   
H5       H      0.548736215000     0.366525400000     0.600924050000     0.035706   
H6       H      0.910225800000     0.363953830000     0.647744030000     0.039713   
H7       H      0.950106085000     0.339739350000     0.726770965000     0.028601   
H8       H      0.926893750000     0.177478650000     0.965293650000     0.162652   
H9       H      0.569218280000     0.059602380000     0.839099615000     0.16663    
H10      H      0.554701805000     0.209765865000     0.868927500000     0.134598   
H11      H      0.941406000000     0.027358275000     0.935474400000     0.135529   
H12      H      0.731954100000     0.408548800000     0.875187950000     0.046793   
H13      H      0.764972900000     0.330627470000     0.930850775000     0.045227   
C14      C      0.506738305000     0.310910670000     0.676839260000    -0.032455   
C15      C      0.548317315000     0.346930250000     0.672581135000    -0.030767   
C16      C      0.538711190000     0.439347700000     0.752949500000    -0.0962     
C17      C      0.954987750000     0.275221500000     0.569914245000    -0.100018   
C18      C      0.972296625000     0.345541775000     0.698173910000    -0.037587   
C19      C      0.513590875000     0.381021250000     0.693313315000     0.007501   
C20      C      0.950617285000     0.359239725000     0.655147165000    -0.028284   
C21      C      0.985241450000     0.325123520000     0.634340750000     0.005207   
C22      C      0.992092075000     0.395085485000     0.650776685000    -0.032853   
C23      C      0.526551245000     0.360609000000     0.629528760000    -0.033114   
C24      C      0.528154255000     0.412954100000     0.725882070000     0.016334   
C25      C      0.938866050000     0.254605325000     0.531713990000     0.285881   
C26      C      0.968769970000     0.296155335000     0.600008980000     0.035445   
C27      C      0.549389960000     0.470093850000     0.786173050000     0.215432   
C28      C      0.503247200000     0.071873210000     0.893513770000    -0.104121   
C29      C      0.994237050000     0.165077775000     0.912027570000    -0.102319   
C30      C      0.967631725000     0.087182560000     0.922986925000     0.102842   
C31      C      0.529718220000     0.149799735000     0.882413300000     0.102037   
C32      C      0.534158945000     0.103862980000     0.873288600000     0.120381   
C33      C      0.963192850000     0.133100165000     0.932107850000     0.119408   
C34      C      0.508050205000     0.023895875000     0.884223580000     0.12311    
C35      C      0.989771515000     0.212976770000     0.921781870000     0.12006    
C36      C      0.588260635000     0.336140450000     0.941599650000     0.283766   
C37      C      0.908666400000     0.403035880000     0.864439130000     0.284356   
C38      C      0.641192270000     0.343099535000     0.931896865000    -0.120019   
C39      C      0.855734800000     0.396076770000     0.874141870000    -0.120725   
C40      C      0.739294335000     0.353668950000     0.915724900000    -0.055534   
C41      C      0.757632675000     0.385507250000     0.890313800000    -0.056015   
C42      C      0.811386350000     0.390590580000     0.881992450000     0.052496   
C43      C      0.685540750000     0.348585725000     0.924046300000     0.052027   
N44      N      0.986157000000     0.250888950000     0.929506650000    -0.213316   
N45      N      0.511772990000     0.485907585000     0.876871825000    -0.222297   
O46      O      0.895295250000     0.263118750000     0.517999685000    -0.252925   
O47      O      0.971124100000     0.235130725000     0.509189275000    -0.233976   
O48      O      0.596565900000     0.476503750000     0.794831575000    -0.225368   
O49      O      0.520616470000     0.004614235000     0.787494930000    -0.200772   
O50      O      0.927520425000     0.144821780000     0.961219100000    -0.253861   
O51      O      0.569671750000     0.092121660000     0.844052165000    -0.251775   
O52      O      0.561326205000     0.178450550000     0.861200185000    -0.250029   
O53      O      0.935857600000     0.058579060000     0.944088130000    -0.251794   
O54      O      0.555343530000     0.359141700000     0.918666100000    -0.58977    
O55      O      0.941583500000     0.380034550000     0.887372600000    -0.597375   
O56      O      0.918892550000     0.431821200000     0.833922550000    -0.290261   
O57      O      0.578034385000     0.307355015000     0.972116170000    -0.290481   
Zn0      Zn     0.515860500000     0.896586700000     0.366784950000     1.11476    
Zn1      Zn     0.979714780000     0.840953500000     0.438894800000     1.11321    
H2       H      0.986249200000     0.929954530000     0.140259340000     0.042952   
H3       H      0.588679850000     0.842249570000     0.180099710000     0.039373   
H4       H      0.512547550000     0.775992570000     0.187230350000     0.041979   
H5       H      0.548736215000     0.866525400000     0.100924050000     0.035706   
H6       H      0.910225800000     0.863953830000     0.147744030000     0.039713   
H7       H      0.950106085000     0.839739350000     0.226770965000     0.028601   
H8       H      0.926893750000     0.677478650000     0.465293650000     0.162652   
H9       H      0.569218280000     0.559602380000     0.339099615000     0.16663    
H10      H      0.554701805000     0.709765865000     0.368927500000     0.134598   
H11      H      0.941406000000     0.527358275000     0.435474400000     0.135529   
H12      H      0.731954100000     0.908548800000     0.375187950000     0.046793   
H13      H      0.764972900000     0.830627470000     0.430850775000     0.045227   
C14      C      0.506738305000     0.810910670000     0.176839260000    -0.032455   
C15      C      0.548317315000     0.846930250000     0.172581135000    -0.030767   
C16      C      0.538711190000     0.939347700000     0.252949500000    -0.0962     
C17      C      0.954987750000     0.775221500000     0.069914245000    -0.100018   
C18      C      0.972296625000     0.845541775000     0.198173910000    -0.037587   
C19      C      0.513590875000     0.881021250000     0.193313315000     0.007501   
C20      C      0.950617285000     0.859239725000     0.155147165000    -0.028284   
C21      C      0.985241450000     0.825123520000     0.134340750000     0.005207   
C22      C      0.992092075000     0.895085485000     0.150776685000    -0.032853   
C23      C      0.526551245000     0.860609000000     0.129528760000    -0.033114   
C24      C      0.528154255000     0.912954100000     0.225882070000     0.016334   
C25      C      0.938866050000     0.754605325000     0.031713990000     0.285881   
C26      C      0.968769970000     0.796155335000     0.100008980000     0.035445   
C27      C      0.549389960000     0.970093850000     0.286173050000     0.215432   
C28      C      0.503247200000     0.571873210000     0.393513770000    -0.104121   
C29      C      0.994237050000     0.665077775000     0.412027570000    -0.102319   
C30      C      0.967631725000     0.587182560000     0.422986925000     0.102842   
C31      C      0.529718220000     0.649799735000     0.382413300000     0.102037   
C32      C      0.534158945000     0.603862980000     0.373288600000     0.120381   
C33      C      0.963192850000     0.633100165000     0.432107850000     0.119408   
C34      C      0.508050205000     0.523895875000     0.384223580000     0.12311    
C35      C      0.989771515000     0.712976770000     0.421781870000     0.12006    
C36      C      0.588260635000     0.836140450000     0.441599650000     0.283766   
C37      C      0.908666400000     0.903035880000     0.364439130000     0.284356   
C38      C      0.641192270000     0.843099535000     0.431896865000    -0.120019   
C39      C      0.855734800000     0.896076770000     0.374141870000    -0.120725   
C40      C      0.739294335000     0.853668950000     0.415724900000    -0.055534   
C41      C      0.757632675000     0.885507250000     0.390313800000    -0.056015   
C42      C      0.811386350000     0.890590580000     0.381992450000     0.052496   
C43      C      0.685540750000     0.848585725000     0.424046300000     0.052027   
N44      N      0.986157000000     0.750888950000     0.429506650000    -0.213316   
N45      N      0.511772990000     0.985907585000     0.376871825000    -0.222297   
O46      O      0.895295250000     0.763118750000     0.017999685000    -0.252925   
O47      O      0.971124100000     0.735130725000     0.009189275000    -0.233976   
O48      O      0.596565900000     0.976503750000     0.294831575000    -0.225368   
O49      O      0.520616470000     0.504614235000     0.287494930000    -0.200772   
O50      O      0.927520425000     0.644821780000     0.461219100000    -0.253861   
O51      O      0.569671750000     0.592121660000     0.344052165000    -0.251775   
O52      O      0.561326205000     0.678450550000     0.361200185000    -0.250029   
O53      O      0.935857600000     0.558579060000     0.444088130000    -0.251794   
O54      O      0.555343530000     0.859141700000     0.418666100000    -0.58977    
O55      O      0.941583500000     0.880034550000     0.387372600000    -0.597375   
O56      O      0.918892550000     0.931821200000     0.333922550000    -0.290261   
O57      O      0.578034385000     0.807355015000     0.472116170000    -0.290481   
Zn0      Zn     0.515860500000     0.896586700000     0.866784950000     1.11476    
Zn1      Zn     0.979714780000     0.840953500000     0.938894800000     1.11321    
H2       H      0.986249200000     0.929954530000     0.640259340000     0.042952   
H3       H      0.588679850000     0.842249570000     0.680099710000     0.039373   
H4       H      0.512547550000     0.775992570000     0.687230350000     0.041979   
H5       H      0.548736215000     0.866525400000     0.600924050000     0.035706   
H6       H      0.910225800000     0.863953830000     0.647744030000     0.039713   
H7       H      0.950106085000     0.839739350000     0.726770965000     0.028601   
H8       H      0.926893750000     0.677478650000     0.965293650000     0.162652   
H9       H      0.569218280000     0.559602380000     0.839099615000     0.16663    
H10      H      0.554701805000     0.709765865000     0.868927500000     0.134598   
H11      H      0.941406000000     0.527358275000     0.935474400000     0.135529   
H12      H      0.731954100000     0.908548800000     0.875187950000     0.046793   
H13      H      0.764972900000     0.830627470000     0.930850775000     0.045227   
C14      C      0.506738305000     0.810910670000     0.676839260000    -0.032455   
C15      C      0.548317315000     0.846930250000     0.672581135000    -0.030767   
C16      C      0.538711190000     0.939347700000     0.752949500000    -0.0962     
C17      C      0.954987750000     0.775221500000     0.569914245000    -0.100018   
C18      C      0.972296625000     0.845541775000     0.698173910000    -0.037587   
C19      C      0.513590875000     0.881021250000     0.693313315000     0.007501   
C20      C      0.950617285000     0.859239725000     0.655147165000    -0.028284   
C21      C      0.985241450000     0.825123520000     0.634340750000     0.005207   
C22      C      0.992092075000     0.895085485000     0.650776685000    -0.032853   
C23      C      0.526551245000     0.860609000000     0.629528760000    -0.033114   
C24      C      0.528154255000     0.912954100000     0.725882070000     0.016334   
C25      C      0.938866050000     0.754605325000     0.531713990000     0.285881   
C26      C      0.968769970000     0.796155335000     0.600008980000     0.035445   
C27      C      0.549389960000     0.970093850000     0.786173050000     0.215432   
C28      C      0.503247200000     0.571873210000     0.893513770000    -0.104121   
C29      C      0.994237050000     0.665077775000     0.912027570000    -0.102319   
C30      C      0.967631725000     0.587182560000     0.922986925000     0.102842   
C31      C      0.529718220000     0.649799735000     0.882413300000     0.102037   
C32      C      0.534158945000     0.603862980000     0.873288600000     0.120381   
C33      C      0.963192850000     0.633100165000     0.932107850000     0.119408   
C34      C      0.508050205000     0.523895875000     0.884223580000     0.12311    
C35      C      0.989771515000     0.712976770000     0.921781870000     0.12006    
C36      C      0.588260635000     0.836140450000     0.941599650000     0.283766   
C37      C      0.908666400000     0.903035880000     0.864439130000     0.284356   
C38      C      0.641192270000     0.843099535000     0.931896865000    -0.120019   
C39      C      0.855734800000     0.896076770000     0.874141870000    -0.120725   
C40      C      0.739294335000     0.853668950000     0.915724900000    -0.055534   
C41      C      0.757632675000     0.885507250000     0.890313800000    -0.056015   
C42      C      0.811386350000     0.890590580000     0.881992450000     0.052496   
C43      C      0.685540750000     0.848585725000     0.924046300000     0.052027   
N44      N      0.986157000000     0.750888950000     0.929506650000    -0.213316   
N45      N      0.511772990000     0.985907585000     0.876871825000    -0.222297   
O46      O      0.895295250000     0.763118750000     0.517999685000    -0.252925   
O47      O      0.971124100000     0.735130725000     0.509189275000    -0.233976   
O48      O      0.596565900000     0.976503750000     0.794831575000    -0.225368   
O49      O      0.520616470000     0.504614235000     0.787494930000    -0.200772   
O50      O      0.927520425000     0.644821780000     0.961219100000    -0.253861   
O51      O      0.569671750000     0.592121660000     0.844052165000    -0.251775   
O52      O      0.561326205000     0.678450550000     0.861200185000    -0.250029   
O53      O      0.935857600000     0.558579060000     0.944088130000    -0.251794   
O54      O      0.555343530000     0.859141700000     0.918666100000    -0.58977    
O55      O      0.941583500000     0.880034550000     0.887372600000    -0.597375   
O56      O      0.918892550000     0.931821200000     0.833922550000    -0.290261   
O57      O      0.578034385000     0.807355015000     0.972116170000    -0.290481   


