data_sample_0_relaxed_charged

_audit_creation_method RASPA-1.0
_audit_creation_date 2026-2-5
_audit_author_name ''

_cell_length_a    9.82379
_cell_length_b    13.1448
_cell_length_c    20.2091
_cell_angle_alpha 94.69
_cell_angle_beta  92.3612
_cell_angle_gamma 106.2
_cell_volume      19936.3

_symmetry_cell_setting          triclinic
_symmetry_space_group_name_Hall 'P 1'
_symmetry_space_group_name_H-M  'P 1'
_symmetry_Int_Tables_number     1

_symmetry_equiv_pos_as_xyz 'x,y,z'

loop_
_atom_site_label
_atom_site_type_symbol
_atom_site_fract_x
_atom_site_fract_y
_atom_site_fract_z
_atom_site_charge
Zn0      Zn     0.229326100000     0.232368230000     0.175239460000     0.077526   
Zn0      Zn     0.229326100000     0.232368230000     0.675239460000     0.077526   
Zn0      Zn     0.229326100000     0.732368230000     0.175239460000     0.077526   
Zn0      Zn     0.229326100000     0.732368230000     0.675239460000     0.077526   
Zn0      Zn     0.729326100000     0.232368230000     0.175239460000     0.077526   
Zn0      Zn     0.729326100000     0.232368230000     0.675239460000     0.077526   
Zn0      Zn     0.729326100000     0.732368230000     0.175239460000     0.077526   
Zn0      Zn     0.729326100000     0.732368230000     0.675239460000     0.077526   
Zn1      Zn     0.385275125000     0.241303235000     0.184319390000     0.029002   
Zn1      Zn     0.385275125000     0.241303235000     0.684319390000     0.029002   
Zn1      Zn     0.385275125000     0.741303235000     0.184319390000     0.029002   
Zn1      Zn     0.385275125000     0.741303235000     0.684319390000     0.029002   
Zn1      Zn     0.885275125000     0.241303235000     0.184319390000     0.029002   
Zn1      Zn     0.885275125000     0.241303235000     0.684319390000     0.029002   
Zn1      Zn     0.885275125000     0.741303235000     0.184319390000     0.029002   
Zn1      Zn     0.885275125000     0.741303235000     0.684319390000     0.029002   
H2       H      0.472021050000     0.405556200000     0.140971915000     0.043872   
H2       H      0.472021050000     0.405556200000     0.640971915000     0.043872   
H2       H      0.472021050000     0.905556200000     0.140971915000     0.043872   
H2       H      0.472021050000     0.905556200000     0.640971915000     0.043872   
H2       H      0.972021050000     0.405556200000     0.140971915000     0.043872   
H2       H      0.972021050000     0.405556200000     0.640971915000     0.043872   
H2       H      0.972021050000     0.905556200000     0.140971915000     0.043872   
H2       H      0.972021050000     0.905556200000     0.640971915000     0.043872   
H3       H      0.334601200000     0.110592010000     0.139080050000     0.035339   
H3       H      0.334601200000     0.110592010000     0.639080050000     0.035339   
H3       H      0.334601200000     0.610592010000     0.139080050000     0.035339   
H3       H      0.334601200000     0.610592010000     0.639080050000     0.035339   
H3       H      0.834601200000     0.110592010000     0.139080050000     0.035339   
H3       H      0.834601200000     0.110592010000     0.639080050000     0.035339   
H3       H      0.834601200000     0.610592010000     0.139080050000     0.035339   
H3       H      0.834601200000     0.610592010000     0.639080050000     0.035339   
H4       H      0.196021080000     0.102454780000     0.254188950000     0.041502   
H4       H      0.196021080000     0.102454780000     0.754188950000     0.041502   
H4       H      0.196021080000     0.602454780000     0.254188950000     0.041502   
H4       H      0.196021080000     0.602454780000     0.754188950000     0.041502   
H4       H      0.696021080000     0.102454780000     0.254188950000     0.041502   
H4       H      0.696021080000     0.102454780000     0.754188950000     0.041502   
H4       H      0.696021080000     0.602454780000     0.254188950000     0.041502   
H4       H      0.696021080000     0.602454780000     0.754188950000     0.041502   
H5       H      0.127042965000     0.040992020000     0.258123850000     0.031151   
H5       H      0.127042965000     0.040992020000     0.758123850000     0.031151   
H5       H      0.127042965000     0.540992020000     0.258123850000     0.031151   
H5       H      0.127042965000     0.540992020000     0.758123850000     0.031151   
H5       H      0.627042965000     0.040992020000     0.258123850000     0.031151   
H5       H      0.627042965000     0.040992020000     0.758123850000     0.031151   
H5       H      0.627042965000     0.540992020000     0.258123850000     0.031151   
H5       H      0.627042965000     0.540992020000     0.758123850000     0.031151   
H6       H      0.035728515000     0.089360655000     0.256126525000     0.041686   
H6       H      0.035728515000     0.089360655000     0.756126525000     0.041686   
H6       H      0.035728515000     0.589360655000     0.256126525000     0.041686   
H6       H      0.035728515000     0.589360655000     0.756126525000     0.041686   
H6       H      0.535728515000     0.089360655000     0.256126525000     0.041686   
H6       H      0.535728515000     0.089360655000     0.756126525000     0.041686   
H6       H      0.535728515000     0.589360655000     0.256126525000     0.041686   
H6       H      0.535728515000     0.589360655000     0.756126525000     0.041686   
H7       H      0.103730475000     0.119371115000     0.289105685000     0.042799   
H7       H      0.103730475000     0.119371115000     0.789105685000     0.042799   
H7       H      0.103730475000     0.619371115000     0.289105685000     0.042799   
H7       H      0.103730475000     0.619371115000     0.789105685000     0.042799   
H7       H      0.603730475000     0.119371115000     0.289105685000     0.042799   
H7       H      0.603730475000     0.119371115000     0.789105685000     0.042799   
H7       H      0.603730475000     0.619371115000     0.289105685000     0.042799   
H7       H      0.603730475000     0.619371115000     0.789105685000     0.042799   
H8       H      0.103178830000     0.150468410000     0.250899200000     0.053891   
H8       H      0.103178830000     0.150468410000     0.750899200000     0.053891   
H8       H      0.103178830000     0.650468410000     0.250899200000     0.053891   
H8       H      0.103178830000     0.650468410000     0.750899200000     0.053891   
H8       H      0.603178830000     0.150468410000     0.250899200000     0.053891   
H8       H      0.603178830000     0.150468410000     0.750899200000     0.053891   
H8       H      0.603178830000     0.650468410000     0.250899200000     0.053891   
H8       H      0.603178830000     0.650468410000     0.750899200000     0.053891   
H9       H      0.425418750000     0.069196105000     0.123263800000     0.042123   
H9       H      0.425418750000     0.069196105000     0.623263800000     0.042123   
H9       H      0.425418750000     0.569196105000     0.123263800000     0.042123   
H9       H      0.425418750000     0.569196105000     0.623263800000     0.042123   
H9       H      0.925418750000     0.069196105000     0.123263800000     0.042123   
H9       H      0.925418750000     0.069196105000     0.623263800000     0.042123   
H9       H      0.925418750000     0.569196105000     0.123263800000     0.042123   
H9       H      0.925418750000     0.569196105000     0.623263800000     0.042123   
H10      H      0.480560850000     0.495961070000     0.126293585000     0.049543   
H10      H      0.480560850000     0.495961070000     0.626293585000     0.049543   
H10      H      0.480560850000     0.995961070000     0.126293585000     0.049543   
H10      H      0.480560850000     0.995961070000     0.626293585000     0.049543   
H10      H      0.980560850000     0.495961070000     0.126293585000     0.049543   
H10      H      0.980560850000     0.495961070000     0.626293585000     0.049543   
H10      H      0.980560850000     0.995961070000     0.126293585000     0.049543   
H10      H      0.980560850000     0.995961070000     0.626293585000     0.049543   
H11      H      0.292397250000     0.405889700000     0.196881350000     0.01469    
H11      H      0.292397250000     0.405889700000     0.696881350000     0.01469    
H11      H      0.292397250000     0.905889700000     0.196881350000     0.01469    
H11      H      0.292397250000     0.905889700000     0.696881350000     0.01469    
H11      H      0.792397250000     0.405889700000     0.196881350000     0.01469    
H11      H      0.792397250000     0.405889700000     0.696881350000     0.01469    
H11      H      0.792397250000     0.905889700000     0.196881350000     0.01469    
H11      H      0.792397250000     0.905889700000     0.696881350000     0.01469    
H12      H      0.195540935000     0.423850500000     0.190738320000     0.033969   
H12      H      0.195540935000     0.423850500000     0.690738320000     0.033969   
H12      H      0.195540935000     0.923850500000     0.190738320000     0.033969   
H12      H      0.195540935000     0.923850500000     0.690738320000     0.033969   
H12      H      0.695540935000     0.423850500000     0.190738320000     0.033969   
H12      H      0.695540935000     0.423850500000     0.690738320000     0.033969   
H12      H      0.695540935000     0.923850500000     0.190738320000     0.033969   
H12      H      0.695540935000     0.923850500000     0.690738320000     0.033969   
H13      H      0.111254000000     0.468954535000     0.209837435000     0.041941   
H13      H      0.111254000000     0.468954535000     0.709837435000     0.041941   
H13      H      0.111254000000     0.968954535000     0.209837435000     0.041941   
H13      H      0.111254000000     0.968954535000     0.709837435000     0.041941   
H13      H      0.611254000000     0.468954535000     0.209837435000     0.041941   
H13      H      0.611254000000     0.468954535000     0.709837435000     0.041941   
H13      H      0.611254000000     0.968954535000     0.209837435000     0.041941   
H13      H      0.611254000000     0.968954535000     0.709837435000     0.041941   
H14      H      0.376919500000     0.246788900000     0.075647235000     0.035172   
H14      H      0.376919500000     0.246788900000     0.575647235000     0.035172   
H14      H      0.376919500000     0.746788900000     0.075647235000     0.035172   
H14      H      0.376919500000     0.746788900000     0.575647235000     0.035172   
H14      H      0.876919500000     0.246788900000     0.075647235000     0.035172   
H14      H      0.876919500000     0.246788900000     0.575647235000     0.035172   
H14      H      0.876919500000     0.746788900000     0.075647235000     0.035172   
H14      H      0.876919500000     0.746788900000     0.575647235000     0.035172   
H15      H      0.237783950000     0.203742175000     0.287954120000     0.038068   
H15      H      0.237783950000     0.203742175000     0.787954120000     0.038068   
H15      H      0.237783950000     0.703742175000     0.287954120000     0.038068   
H15      H      0.237783950000     0.703742175000     0.787954120000     0.038068   
H15      H      0.737783950000     0.203742175000     0.287954120000     0.038068   
H15      H      0.737783950000     0.203742175000     0.787954120000     0.038068   
H15      H      0.737783950000     0.703742175000     0.287954120000     0.038068   
H15      H      0.737783950000     0.703742175000     0.787954120000     0.038068   
H16      H      0.462846500000     0.278583850000     0.306985885000     0.073371   
H16      H      0.462846500000     0.278583850000     0.806985885000     0.073371   
H16      H      0.462846500000     0.778583850000     0.306985885000     0.073371   
H16      H      0.462846500000     0.778583850000     0.806985885000     0.073371   
H16      H      0.962846500000     0.278583850000     0.306985885000     0.073371   
H16      H      0.962846500000     0.278583850000     0.806985885000     0.073371   
H16      H      0.962846500000     0.778583850000     0.306985885000     0.073371   
H16      H      0.962846500000     0.778583850000     0.806985885000     0.073371   
H17      H      0.153304550000     0.224740550000     0.052264450000     0.021623   
H17      H      0.153304550000     0.224740550000     0.552264450000     0.021623   
H17      H      0.153304550000     0.724740550000     0.052264450000     0.021623   
H17      H      0.153304550000     0.724740550000     0.552264450000     0.021623   
H17      H      0.653304550000     0.224740550000     0.052264450000     0.021623   
H17      H      0.653304550000     0.224740550000     0.552264450000     0.021623   
H17      H      0.653304550000     0.724740550000     0.052264450000     0.021623   
H17      H      0.653304550000     0.724740550000     0.552264450000     0.021623   
H18      H      0.399132550000     0.253050900000     0.017258940000     0.029541   
H18      H      0.399132550000     0.253050900000     0.517258940000     0.029541   
H18      H      0.399132550000     0.753050900000     0.017258940000     0.029541   
H18      H      0.399132550000     0.753050900000     0.517258940000     0.029541   
H18      H      0.899132550000     0.253050900000     0.017258940000     0.029541   
H18      H      0.899132550000     0.253050900000     0.517258940000     0.029541   
H18      H      0.899132550000     0.753050900000     0.017258940000     0.029541   
H18      H      0.899132550000     0.753050900000     0.517258940000     0.029541   
H19      H      0.222689510000     0.208585085000     0.347285350000     0.03452    
H19      H      0.222689510000     0.208585085000     0.847285350000     0.03452    
H19      H      0.222689510000     0.708585085000     0.347285350000     0.03452    
H19      H      0.222689510000     0.708585085000     0.847285350000     0.03452    
H19      H      0.722689510000     0.208585085000     0.347285350000     0.03452    
H19      H      0.722689510000     0.208585085000     0.847285350000     0.03452    
H19      H      0.722689510000     0.708585085000     0.347285350000     0.03452    
H19      H      0.722689510000     0.708585085000     0.847285350000     0.03452    
H20      H      0.447966070000     0.280628050000     0.366814000000     0.043079   
H20      H      0.447966070000     0.280628050000     0.866814000000     0.043079   
H20      H      0.447966070000     0.780628050000     0.366814000000     0.043079   
H20      H      0.447966070000     0.780628050000     0.866814000000     0.043079   
H20      H      0.947966070000     0.280628050000     0.366814000000     0.043079   
H20      H      0.947966070000     0.280628050000     0.866814000000     0.043079   
H20      H      0.947966070000     0.780628050000     0.366814000000     0.043079   
H20      H      0.947966070000     0.780628050000     0.866814000000     0.043079   
H21      H      0.174780070000     0.227469460000     0.493479150000     0.053741   
H21      H      0.174780070000     0.227469460000     0.993479150000     0.053741   
H21      H      0.174780070000     0.727469460000     0.493479150000     0.053741   
H21      H      0.174780070000     0.727469460000     0.993479150000     0.053741   
H21      H      0.674780070000     0.227469460000     0.493479150000     0.053741   
H21      H      0.674780070000     0.227469460000     0.993479150000     0.053741   
H21      H      0.674780070000     0.727469460000     0.493479150000     0.053741   
H21      H      0.674780070000     0.727469460000     0.993479150000     0.053741   
H22      H      0.225101150000     0.286365925000     0.454678750000     0.037756   
H22      H      0.225101150000     0.286365925000     0.954678750000     0.037756   
H22      H      0.225101150000     0.786365925000     0.454678750000     0.037756   
H22      H      0.225101150000     0.786365925000     0.954678750000     0.037756   
H22      H      0.725101150000     0.286365925000     0.454678750000     0.037756   
H22      H      0.725101150000     0.286365925000     0.954678750000     0.037756   
H22      H      0.725101150000     0.786365925000     0.454678750000     0.037756   
H22      H      0.725101150000     0.786365925000     0.954678750000     0.037756   
H23      H      0.403141230000     0.204603970000     0.407133850000     0.014135   
H23      H      0.403141230000     0.204603970000     0.907133850000     0.014135   
H23      H      0.403141230000     0.704603970000     0.407133850000     0.014135   
H23      H      0.403141230000     0.704603970000     0.907133850000     0.014135   
H23      H      0.903141230000     0.204603970000     0.407133850000     0.014135   
H23      H      0.903141230000     0.204603970000     0.907133850000     0.014135   
H23      H      0.903141230000     0.704603970000     0.407133850000     0.014135   
H23      H      0.903141230000     0.704603970000     0.907133850000     0.014135   
H24      H      0.243758870000     0.287241250000     0.395335735000     0.04039    
H24      H      0.243758870000     0.287241250000     0.895335735000     0.04039    
H24      H      0.243758870000     0.787241250000     0.395335735000     0.04039    
H24      H      0.243758870000     0.787241250000     0.895335735000     0.04039    
H24      H      0.743758870000     0.287241250000     0.395335735000     0.04039    
H24      H      0.743758870000     0.287241250000     0.895335735000     0.04039    
H24      H      0.743758870000     0.787241250000     0.395335735000     0.04039    
H24      H      0.743758870000     0.787241250000     0.895335735000     0.04039    
H25      H      0.382476775000     0.201129140000     0.466170350000     0.02203    
H25      H      0.382476775000     0.201129140000     0.966170350000     0.02203    
H25      H      0.382476775000     0.701129140000     0.466170350000     0.02203    
H25      H      0.382476775000     0.701129140000     0.966170350000     0.02203    
H25      H      0.882476775000     0.201129140000     0.466170350000     0.02203    
H25      H      0.882476775000     0.201129140000     0.966170350000     0.02203    
H25      H      0.882476775000     0.701129140000     0.466170350000     0.02203    
H25      H      0.882476775000     0.701129140000     0.966170350000     0.02203    
H26      H      0.018222645000     0.285293000000     0.227289140000     0.002185   
H26      H      0.018222645000     0.285293000000     0.727289140000     0.002185   
H26      H      0.018222645000     0.785293000000     0.227289140000     0.002185   
H26      H      0.018222645000     0.785293000000     0.727289140000     0.002185   
H26      H      0.518222645000     0.285293000000     0.227289140000     0.002185   
H26      H      0.518222645000     0.285293000000     0.727289140000     0.002185   
H26      H      0.518222645000     0.785293000000     0.227289140000     0.002185   
H26      H      0.518222645000     0.785293000000     0.727289140000     0.002185   
H27      H      0.141900465000     0.277606515000     0.227880940000     0.055613   
H27      H      0.141900465000     0.277606515000     0.727880940000     0.055613   
H27      H      0.141900465000     0.777606515000     0.227880940000     0.055613   
H27      H      0.141900465000     0.777606515000     0.727880940000     0.055613   
H27      H      0.641900465000     0.277606515000     0.227880940000     0.055613   
H27      H      0.641900465000     0.277606515000     0.727880940000     0.055613   
H27      H      0.641900465000     0.777606515000     0.227880940000     0.055613   
H27      H      0.641900465000     0.777606515000     0.727880940000     0.055613   
H28      H      0.010346735000     0.093069090000     0.086315365000     0.089443   
H28      H      0.010346735000     0.093069090000     0.586315365000     0.089443   
H28      H      0.010346735000     0.593069090000     0.086315365000     0.089443   
H28      H      0.010346735000     0.593069090000     0.586315365000     0.089443   
H28      H      0.510346735000     0.093069090000     0.086315365000     0.089443   
H28      H      0.510346735000     0.093069090000     0.586315365000     0.089443   
H28      H      0.510346735000     0.593069090000     0.086315365000     0.089443   
H28      H      0.510346735000     0.593069090000     0.586315365000     0.089443   
H29      H      0.098038115000     0.085688660000     0.084851770000     0.06489    
H29      H      0.098038115000     0.085688660000     0.584851770000     0.06489    
H29      H      0.098038115000     0.585688660000     0.084851770000     0.06489    
H29      H      0.098038115000     0.585688660000     0.584851770000     0.06489    
H29      H      0.598038115000     0.085688660000     0.084851770000     0.06489    
H29      H      0.598038115000     0.085688660000     0.584851770000     0.06489    
H29      H      0.598038115000     0.585688660000     0.084851770000     0.06489    
H29      H      0.598038115000     0.585688660000     0.584851770000     0.06489    
H30      H      0.043500180000     0.163399700000     0.045791595000     0.058975   
H30      H      0.043500180000     0.163399700000     0.545791595000     0.058975   
H30      H      0.043500180000     0.663399700000     0.045791595000     0.058975   
H30      H      0.043500180000     0.663399700000     0.545791595000     0.058975   
H30      H      0.543500180000     0.163399700000     0.045791595000     0.058975   
H30      H      0.543500180000     0.163399700000     0.545791595000     0.058975   
H30      H      0.543500180000     0.663399700000     0.045791595000     0.058975   
H30      H      0.543500180000     0.663399700000     0.545791595000     0.058975   
H31      H      0.129811350000     0.152233960000     0.044382660000     0.062262   
H31      H      0.129811350000     0.152233960000     0.544382660000     0.062262   
H31      H      0.129811350000     0.652233960000     0.044382660000     0.062262   
H31      H      0.129811350000     0.652233960000     0.544382660000     0.062262   
H31      H      0.629811350000     0.152233960000     0.044382660000     0.062262   
H31      H      0.629811350000     0.152233960000     0.544382660000     0.062262   
H31      H      0.629811350000     0.652233960000     0.044382660000     0.062262   
H31      H      0.629811350000     0.652233960000     0.544382660000     0.062262   
H32      H      0.072626995000     0.056727050000     0.023089405000    -0.146486   
H32      H      0.072626995000     0.056727050000     0.523089405000    -0.146486   
H32      H      0.072626995000     0.556727050000     0.023089405000    -0.146486   
H32      H      0.072626995000     0.556727050000     0.523089405000    -0.146486   
H32      H      0.572626995000     0.056727050000     0.023089405000    -0.146486   
H32      H      0.572626995000     0.056727050000     0.523089405000    -0.146486   
H32      H      0.572626995000     0.556727050000     0.023089405000    -0.146486   
H32      H      0.572626995000     0.556727050000     0.523089405000    -0.146486   
H33      H      0.049664935000     0.102103270000     0.496422600000     0.352418   
H33      H      0.049664935000     0.102103270000     0.996422600000     0.352418   
H33      H      0.049664935000     0.602103270000     0.496422600000     0.352418   
H33      H      0.049664935000     0.602103270000     0.996422600000     0.352418   
H33      H      0.549664935000     0.102103270000     0.496422600000     0.352418   
H33      H      0.549664935000     0.102103270000     0.996422600000     0.352418   
H33      H      0.549664935000     0.602103270000     0.496422600000     0.352418   
H33      H      0.549664935000     0.602103270000     0.996422600000     0.352418   
H34      H      0.485991150000     0.068470180000     0.024127815000     0.332841   
H34      H      0.485991150000     0.068470180000     0.524127815000     0.332841   
H34      H      0.485991150000     0.568470180000     0.024127815000     0.332841   
H34      H      0.485991150000     0.568470180000     0.524127815000     0.332841   
H34      H      0.985991150000     0.068470180000     0.024127815000     0.332841   
H34      H      0.985991150000     0.068470180000     0.524127815000     0.332841   
H34      H      0.985991150000     0.568470180000     0.024127815000     0.332841   
H34      H      0.985991150000     0.568470180000     0.524127815000     0.332841   
H35      H      0.389945100000     0.201792150000     0.080885610000    -0.042142   
H35      H      0.389945100000     0.201792150000     0.580885610000    -0.042142   
H35      H      0.389945100000     0.701792150000     0.080885610000    -0.042142   
H35      H      0.389945100000     0.701792150000     0.580885610000    -0.042142   
H35      H      0.889945100000     0.201792150000     0.080885610000    -0.042142   
H35      H      0.889945100000     0.201792150000     0.580885610000    -0.042142   
H35      H      0.889945100000     0.701792150000     0.080885610000    -0.042142   
H35      H      0.889945100000     0.701792150000     0.580885610000    -0.042142   
H36      H      0.357630900000     0.157577215000     0.111773065000    -0.098022   
H36      H      0.357630900000     0.157577215000     0.611773065000    -0.098022   
H36      H      0.357630900000     0.657577215000     0.111773065000    -0.098022   
H36      H      0.357630900000     0.657577215000     0.611773065000    -0.098022   
H36      H      0.857630900000     0.157577215000     0.111773065000    -0.098022   
H36      H      0.857630900000     0.157577215000     0.611773065000    -0.098022   
H36      H      0.857630900000     0.657577215000     0.111773065000    -0.098022   
H36      H      0.857630900000     0.657577215000     0.611773065000    -0.098022   
H37      H      0.390611620000     0.132142400000     0.039366600000     0.169448   
H37      H      0.390611620000     0.132142400000     0.539366600000     0.169448   
H37      H      0.390611620000     0.632142400000     0.039366600000     0.169448   
H37      H      0.390611620000     0.632142400000     0.539366600000     0.169448   
H37      H      0.890611620000     0.132142400000     0.039366600000     0.169448   
H37      H      0.890611620000     0.132142400000     0.539366600000     0.169448   
H37      H      0.890611620000     0.632142400000     0.039366600000     0.169448   
H37      H      0.890611620000     0.632142400000     0.539366600000     0.169448   
H38      H      0.376218825000     0.082899020000     0.068604910000    -0.039807   
H38      H      0.376218825000     0.082899020000     0.568604910000    -0.039807   
H38      H      0.376218825000     0.582899020000     0.068604910000    -0.039807   
H38      H      0.376218825000     0.582899020000     0.568604910000    -0.039807   
H38      H      0.876218825000     0.082899020000     0.068604910000    -0.039807   
H38      H      0.876218825000     0.082899020000     0.568604910000    -0.039807   
H38      H      0.876218825000     0.582899020000     0.068604910000    -0.039807   
H38      H      0.876218825000     0.582899020000     0.568604910000    -0.039807   
H39      H      0.255958650000     0.088401810000     0.076545320000     0.028787   
H39      H      0.255958650000     0.088401810000     0.576545320000     0.028787   
H39      H      0.255958650000     0.588401810000     0.076545320000     0.028787   
H39      H      0.255958650000     0.588401810000     0.576545320000     0.028787   
H39      H      0.755958650000     0.088401810000     0.076545320000     0.028787   
H39      H      0.755958650000     0.088401810000     0.576545320000     0.028787   
H39      H      0.755958650000     0.588401810000     0.076545320000     0.028787   
H39      H      0.755958650000     0.588401810000     0.576545320000     0.028787   
H40      H      0.266201465000     0.080649925000     0.032486485000    -0.043018   
H40      H      0.266201465000     0.080649925000     0.532486485000    -0.043018   
H40      H      0.266201465000     0.580649925000     0.032486485000    -0.043018   
H40      H      0.266201465000     0.580649925000     0.532486485000    -0.043018   
H40      H      0.766201465000     0.080649925000     0.032486485000    -0.043018   
H40      H      0.766201465000     0.080649925000     0.532486485000    -0.043018   
H40      H      0.766201465000     0.580649925000     0.032486485000    -0.043018   
H40      H      0.766201465000     0.580649925000     0.532486485000    -0.043018   
H41      H      0.268723900000     0.145063850000     0.052714060000     0.085212   
H41      H      0.268723900000     0.145063850000     0.552714060000     0.085212   
H41      H      0.268723900000     0.645063850000     0.052714060000     0.085212   
H41      H      0.268723900000     0.645063850000     0.552714060000     0.085212   
H41      H      0.768723900000     0.145063850000     0.052714060000     0.085212   
H41      H      0.768723900000     0.145063850000     0.552714060000     0.085212   
H41      H      0.768723900000     0.645063850000     0.052714060000     0.085212   
H41      H      0.768723900000     0.645063850000     0.552714060000     0.085212   
C42      C      0.234048425000     0.074780645000     0.183636300000    -0.184583   
C42      C      0.234048425000     0.074780645000     0.683636300000    -0.184583   
C42      C      0.234048425000     0.574780645000     0.183636300000    -0.184583   
C42      C      0.234048425000     0.574780645000     0.683636300000    -0.184583   
C42      C      0.734048425000     0.074780645000     0.183636300000    -0.184583   
C42      C      0.734048425000     0.074780645000     0.683636300000    -0.184583   
C42      C      0.734048425000     0.574780645000     0.183636300000    -0.184583   
C42      C      0.734048425000     0.574780645000     0.683636300000    -0.184583   
C43      C      0.256763400000     0.132790450000     0.188065800000     0.082973   
C43      C      0.256763400000     0.132790450000     0.688065800000     0.082973   
C43      C      0.256763400000     0.632790450000     0.188065800000     0.082973   
C43      C      0.256763400000     0.632790450000     0.688065800000     0.082973   
C43      C      0.756763400000     0.132790450000     0.188065800000     0.082973   
C43      C      0.756763400000     0.132790450000     0.688065800000     0.082973   
C43      C      0.756763400000     0.632790450000     0.188065800000     0.082973   
C43      C      0.756763400000     0.632790450000     0.688065800000     0.082973   
C44      C      0.358674500000     0.342963370000     0.170111650000    -0.023336   
C44      C      0.358674500000     0.342963370000     0.670111650000    -0.023336   
C44      C      0.358674500000     0.842963370000     0.170111650000    -0.023336   
C44      C      0.358674500000     0.842963370000     0.670111650000    -0.023336   
C44      C      0.858674500000     0.342963370000     0.170111650000    -0.023336   
C44      C      0.858674500000     0.342963370000     0.670111650000    -0.023336   
C44      C      0.858674500000     0.842963370000     0.170111650000    -0.023336   
C44      C      0.858674500000     0.842963370000     0.670111650000    -0.023336   
C45      C      0.437847315000     0.476295450000     0.140989870000    -0.026098   
C45      C      0.437847315000     0.476295450000     0.640989870000    -0.026098   
C45      C      0.437847315000     0.976295450000     0.140989870000    -0.026098   
C45      C      0.437847315000     0.976295450000     0.640989870000    -0.026098   
C45      C      0.937847315000     0.476295450000     0.140989870000    -0.026098   
C45      C      0.937847315000     0.476295450000     0.640989870000    -0.026098   
C45      C      0.937847315000     0.976295450000     0.140989870000    -0.026098   
C45      C      0.937847315000     0.976295450000     0.640989870000    -0.026098   
C46      C      0.378696085000     0.399870200000     0.168767525000    -1.09605    
C46      C      0.378696085000     0.399870200000     0.668767525000    -1.09605    
C46      C      0.378696085000     0.899870200000     0.168767525000    -1.09605    
C46      C      0.378696085000     0.899870200000     0.668767525000    -1.09605    
C46      C      0.878696085000     0.399870200000     0.168767525000    -1.09605    
C46      C      0.878696085000     0.399870200000     0.668767525000    -1.09605    
C46      C      0.878696085000     0.899870200000     0.168767525000    -1.09605    
C46      C      0.878696085000     0.899870200000     0.668767525000    -1.09605    
C47      C      0.173236400000     0.046380160000     0.198835580000    -0.000663   
C47      C      0.173236400000     0.046380160000     0.698835580000    -0.000663   
C47      C      0.173236400000     0.546380160000     0.198835580000    -0.000663   
C47      C      0.173236400000     0.546380160000     0.698835580000    -0.000663   
C47      C      0.673236400000     0.046380160000     0.198835580000    -0.000663   
C47      C      0.673236400000     0.046380160000     0.698835580000    -0.000663   
C47      C      0.673236400000     0.546380160000     0.198835580000    -0.000663   
C47      C      0.673236400000     0.546380160000     0.698835580000    -0.000663   
C48      C      0.159238350000     0.491544150000     0.199583650000     0.01282    
C48      C      0.159238350000     0.491544150000     0.699583650000     0.01282    
C48      C      0.159238350000     0.991544150000     0.199583650000     0.01282    
C48      C      0.159238350000     0.991544150000     0.699583650000     0.01282    
C48      C      0.659238350000     0.491544150000     0.199583650000     0.01282    
C48      C      0.659238350000     0.491544150000     0.699583650000     0.01282    
C48      C      0.659238350000     0.991544150000     0.199583650000     0.01282    
C48      C      0.659238350000     0.991544150000     0.699583650000     0.01282    
C49      C      0.271808030000     0.494945615000     0.175371735000     0.02513    
C49      C      0.271808030000     0.494945615000     0.675371735000     0.02513    
C49      C      0.271808030000     0.994945615000     0.175371735000     0.02513    
C49      C      0.271808030000     0.994945615000     0.675371735000     0.02513    
C49      C      0.771808030000     0.494945615000     0.175371735000     0.02513    
C49      C      0.771808030000     0.494945615000     0.675371735000     0.02513    
C49      C      0.771808030000     0.994945615000     0.175371735000     0.02513    
C49      C      0.771808030000     0.994945615000     0.675371735000     0.02513    
C50      C      0.208721070000     0.466175300000     0.188902480000     0.289632   
C50      C      0.208721070000     0.466175300000     0.688902480000     0.289632   
C50      C      0.208721070000     0.966175300000     0.188902480000     0.289632   
C50      C      0.208721070000     0.966175300000     0.688902480000     0.289632   
C50      C      0.708721070000     0.466175300000     0.188902480000     0.289632   
C50      C      0.708721070000     0.466175300000     0.688902480000     0.289632   
C50      C      0.708721070000     0.966175300000     0.188902480000     0.289632   
C50      C      0.708721070000     0.966175300000     0.688902480000     0.289632   
C51      C      0.139593200000     0.079755305000     0.247095225000     0.278366   
C51      C      0.139593200000     0.079755305000     0.747095225000     0.278366   
C51      C      0.139593200000     0.579755305000     0.247095225000     0.278366   
C51      C      0.139593200000     0.579755305000     0.747095225000     0.278366   
C51      C      0.639593200000     0.079755305000     0.247095225000     0.278366   
C51      C      0.639593200000     0.079755305000     0.747095225000     0.278366   
C51      C      0.639593200000     0.579755305000     0.247095225000     0.278366   
C51      C      0.639593200000     0.579755305000     0.747095225000     0.278366   
C52      C      0.092524620000     0.111755550000     0.261713100000     0.015135   
C52      C      0.092524620000     0.111755550000     0.761713100000     0.015135   
C52      C      0.092524620000     0.611755550000     0.261713100000     0.015135   
C52      C      0.092524620000     0.611755550000     0.761713100000     0.015135   
C52      C      0.592524620000     0.111755550000     0.261713100000     0.015135   
C52      C      0.592524620000     0.111755550000     0.761713100000     0.015135   
C52      C      0.592524620000     0.611755550000     0.261713100000     0.015135   
C52      C      0.592524620000     0.611755550000     0.761713100000     0.015135   
C53      C      0.279140150000     0.047714470000     0.168705850000     0.027371   
C53      C      0.279140150000     0.047714470000     0.668705850000     0.027371   
C53      C      0.279140150000     0.547714470000     0.168705850000     0.027371   
C53      C      0.279140150000     0.547714470000     0.668705850000     0.027371   
C53      C      0.779140150000     0.047714470000     0.168705850000     0.027371   
C53      C      0.779140150000     0.047714470000     0.668705850000     0.027371   
C53      C      0.779140150000     0.547714470000     0.168705850000     0.027371   
C53      C      0.779140150000     0.547714470000     0.668705850000     0.027371   
C54      C      0.327980750000     0.473061000000     0.168257730000    -0.070161   
C54      C      0.327980750000     0.473061000000     0.668257730000    -0.070161   
C54      C      0.327980750000     0.973061000000     0.168257730000    -0.070161   
C54      C      0.327980750000     0.973061000000     0.668257730000    -0.070161   
C54      C      0.827980750000     0.473061000000     0.168257730000    -0.070161   
C54      C      0.827980750000     0.473061000000     0.668257730000    -0.070161   
C54      C      0.827980750000     0.973061000000     0.168257730000    -0.070161   
C54      C      0.827980750000     0.973061000000     0.668257730000    -0.070161   
C55      C      0.384010200000     0.499759465000     0.149326340000    -0.083066   
C55      C      0.384010200000     0.499759465000     0.649326340000    -0.083066   
C55      C      0.384010200000     0.999759465000     0.149326340000    -0.083066   
C55      C      0.384010200000     0.999759465000     0.649326340000    -0.083066   
C55      C      0.884010200000     0.499759465000     0.149326340000    -0.083066   
C55      C      0.884010200000     0.499759465000     0.649326340000    -0.083066   
C55      C      0.884010200000     0.999759465000     0.149326340000    -0.083066   
C55      C      0.884010200000     0.999759465000     0.649326340000    -0.083066   
C56      C      0.384387200000     0.048757135000     0.138516750000    -0.039298   
C56      C      0.384387200000     0.048757135000     0.638516750000    -0.039298   
C56      C      0.384387200000     0.548757135000     0.138516750000    -0.039298   
C56      C      0.384387200000     0.548757135000     0.638516750000    -0.039298   
C56      C      0.884387200000     0.048757135000     0.138516750000    -0.039298   
C56      C      0.884387200000     0.048757135000     0.638516750000    -0.039298   
C56      C      0.884387200000     0.548757135000     0.138516750000    -0.039298   
C56      C      0.884387200000     0.548757135000     0.638516750000    -0.039298   
C57      C      0.332596185000     0.072587610000     0.148096590000    -0.037107   
C57      C      0.332596185000     0.072587610000     0.648096590000    -0.037107   
C57      C      0.332596185000     0.572587610000     0.148096590000    -0.037107   
C57      C      0.332596185000     0.572587610000     0.648096590000    -0.037107   
C57      C      0.832596185000     0.072587610000     0.148096590000    -0.037107   
C57      C      0.832596185000     0.072587610000     0.648096590000    -0.037107   
C57      C      0.832596185000     0.572587610000     0.148096590000    -0.037107   
C57      C      0.832596185000     0.572587610000     0.648096590000    -0.037107   
C58      C      0.330404820000     0.425546975000     0.180126200000    -0.038747   
C58      C      0.330404820000     0.425546975000     0.680126200000    -0.038747   
C58      C      0.330404820000     0.925546975000     0.180126200000    -0.038747   
C58      C      0.330404820000     0.925546975000     0.680126200000    -0.038747   
C58      C      0.830404820000     0.425546975000     0.180126200000    -0.038747   
C58      C      0.830404820000     0.425546975000     0.680126200000    -0.038747   
C58      C      0.830404820000     0.925546975000     0.180126200000    -0.038747   
C58      C      0.830404820000     0.925546975000     0.680126200000    -0.038747   
C59      C      0.434139450000     0.425559500000     0.149980950000    -0.038397   
C59      C      0.434139450000     0.425559500000     0.649980950000    -0.038397   
C59      C      0.434139450000     0.925559500000     0.149980950000    -0.038397   
C59      C      0.434139450000     0.925559500000     0.649980950000    -0.038397   
C59      C      0.934139450000     0.425559500000     0.149980950000    -0.038397   
C59      C      0.934139450000     0.425559500000     0.649980950000    -0.038397   
C59      C      0.934139450000     0.925559500000     0.149980950000    -0.038397   
C59      C      0.934139450000     0.925559500000     0.649980950000    -0.038397   
C60      C      0.361182330000     0.239220750000     0.256648500000     0.000222   
C60      C      0.361182330000     0.239220750000     0.756648500000     0.000222   
C60      C      0.361182330000     0.739220750000     0.256648500000     0.000222   
C60      C      0.361182330000     0.739220750000     0.756648500000     0.000222   
C60      C      0.861182330000     0.239220750000     0.256648500000     0.000222   
C60      C      0.861182330000     0.239220750000     0.756648500000     0.000222   
C60      C      0.861182330000     0.739220750000     0.256648500000     0.000222   
C60      C      0.861182330000     0.739220750000     0.756648500000     0.000222   
C61      C      0.250813950000     0.234473915000     0.104061005000     0.000808   
C61      C      0.250813950000     0.234473915000     0.604061005000     0.000808   
C61      C      0.250813950000     0.734473915000     0.104061005000     0.000808   
C61      C      0.250813950000     0.734473915000     0.604061005000     0.000808   
C61      C      0.750813950000     0.234473915000     0.104061005000     0.000808   
C61      C      0.750813950000     0.234473915000     0.604061005000     0.000808   
C61      C      0.750813950000     0.734473915000     0.104061005000     0.000808   
C61      C      0.750813950000     0.734473915000     0.604061005000     0.000808   
C62      C      0.288755050000     0.240843860000     0.000727715000     0.005131   
C62      C      0.288755050000     0.240843860000     0.500727715000     0.005131   
C62      C      0.288755050000     0.740843860000     0.000727715000     0.005131   
C62      C      0.288755050000     0.740843860000     0.500727715000     0.005131   
C62      C      0.788755050000     0.240843860000     0.000727715000     0.005131   
C62      C      0.788755050000     0.240843860000     0.500727715000     0.005131   
C62      C      0.788755050000     0.740843860000     0.000727715000     0.005131   
C62      C      0.788755050000     0.740843860000     0.500727715000     0.005131   
C63      C      0.334195150000     0.245127470000     0.361261575000     0.012965   
C63      C      0.334195150000     0.245127470000     0.861261575000     0.012965   
C63      C      0.334195150000     0.745127470000     0.361261575000     0.012965   
C63      C      0.334195150000     0.745127470000     0.861261575000     0.012965   
C63      C      0.834195150000     0.245127470000     0.361261575000     0.012965   
C63      C      0.834195150000     0.245127470000     0.861261575000     0.012965   
C63      C      0.834195150000     0.745127470000     0.361261575000     0.012965   
C63      C      0.834195150000     0.745127470000     0.861261575000     0.012965   
C64      C      0.263550370000     0.235952300000     0.068539975000     0.014636   
C64      C      0.263550370000     0.235952300000     0.568539975000     0.014636   
C64      C      0.263550370000     0.735952300000     0.068539975000     0.014636   
C64      C      0.263550370000     0.735952300000     0.568539975000     0.014636   
C64      C      0.763550370000     0.235952300000     0.068539975000     0.014636   
C64      C      0.763550370000     0.235952300000     0.568539975000     0.014636   
C64      C      0.763550370000     0.735952300000     0.068539975000     0.014636   
C64      C      0.763550370000     0.735952300000     0.568539975000     0.014636   
C65      C      0.351279525000     0.241236030000     0.292595950000    -0.010971   
C65      C      0.351279525000     0.241236030000     0.792595950000    -0.010971   
C65      C      0.351279525000     0.741236030000     0.292595950000    -0.010971   
C65      C      0.351279525000     0.741236030000     0.792595950000    -0.010971   
C65      C      0.851279525000     0.241236030000     0.292595950000    -0.010971   
C65      C      0.851279525000     0.241236030000     0.792595950000    -0.010971   
C65      C      0.851279525000     0.741236030000     0.292595950000    -0.010971   
C65      C      0.851279525000     0.741236030000     0.792595950000    -0.010971   
C66      C      0.263482950000     0.267774550000     0.444593875000    -0.056025   
C66      C      0.263482950000     0.267774550000     0.944593875000    -0.056025   
C66      C      0.263482950000     0.767774550000     0.444593875000    -0.056025   
C66      C      0.263482950000     0.767774550000     0.944593875000    -0.056025   
C66      C      0.763482950000     0.267774550000     0.444593875000    -0.056025   
C66      C      0.763482950000     0.267774550000     0.944593875000    -0.056025   
C66      C      0.763482950000     0.767774550000     0.444593875000    -0.056025   
C66      C      0.763482950000     0.767774550000     0.944593875000    -0.056025   
C67      C      0.364537750000     0.222756850000     0.417492700000    -0.06702    
C67      C      0.364537750000     0.222756850000     0.917492700000    -0.06702    
C67      C      0.364537750000     0.722756850000     0.417492700000    -0.06702    
C67      C      0.364537750000     0.722756850000     0.917492700000    -0.06702    
C67      C      0.864537750000     0.222756850000     0.417492700000    -0.06702    
C67      C      0.864537750000     0.222756850000     0.917492700000    -0.06702    
C67      C      0.864537750000     0.722756850000     0.417492700000    -0.06702    
C67      C      0.864537750000     0.722756850000     0.917492700000    -0.06702    
C68      C      0.274398200000     0.268683225000     0.410799680000    -0.064733   
C68      C      0.274398200000     0.268683225000     0.910799680000    -0.064733   
C68      C      0.274398200000     0.768683225000     0.410799680000    -0.064733   
C68      C      0.274398200000     0.768683225000     0.910799680000    -0.064733   
C68      C      0.774398200000     0.268683225000     0.410799680000    -0.064733   
C68      C      0.774398200000     0.268683225000     0.910799680000    -0.064733   
C68      C      0.774398200000     0.768683225000     0.410799680000    -0.064733   
C68      C      0.774398200000     0.768683225000     0.910799680000    -0.064733   
C69      C      0.352834820000     0.221017985000     0.451195715000    -0.023185   
C69      C      0.352834820000     0.221017985000     0.951195715000    -0.023185   
C69      C      0.352834820000     0.721017985000     0.451195715000    -0.023185   
C69      C      0.352834820000     0.721017985000     0.951195715000    -0.023185   
C69      C      0.852834820000     0.221017985000     0.451195715000    -0.023185   
C69      C      0.852834820000     0.221017985000     0.951195715000    -0.023185   
C69      C      0.852834820000     0.721017985000     0.451195715000    -0.023185   
C69      C      0.852834820000     0.721017985000     0.951195715000    -0.023185   
C70      C      0.324837100000     0.246080490000     0.397091350000     3.11748    
C70      C      0.324837100000     0.246080490000     0.897091350000     3.11748    
C70      C      0.324837100000     0.746080490000     0.397091350000     3.11748    
C70      C      0.324837100000     0.746080490000     0.897091350000     3.11748    
C70      C      0.824837100000     0.246080490000     0.397091350000     3.11748    
C70      C      0.824837100000     0.246080490000     0.897091350000     3.11748    
C70      C      0.824837100000     0.746080490000     0.397091350000     3.11748    
C70      C      0.824837100000     0.746080490000     0.897091350000     3.11748    
C71      C      0.302021950000     0.243396970000     0.465088200000    -0.054985   
C71      C      0.302021950000     0.243396970000     0.965088200000    -0.054985   
C71      C      0.302021950000     0.743396970000     0.465088200000    -0.054985   
C71      C      0.302021950000     0.743396970000     0.965088200000    -0.054985   
C71      C      0.802021950000     0.243396970000     0.465088200000    -0.054985   
C71      C      0.802021950000     0.243396970000     0.965088200000    -0.054985   
C71      C      0.802021950000     0.743396970000     0.465088200000    -0.054985   
C71      C      0.802021950000     0.743396970000     0.965088200000    -0.054985   
C72      C      0.332495500000     0.243135915000     0.058004855000    -0.081823   
C72      C      0.332495500000     0.243135915000     0.558004855000    -0.081823   
C72      C      0.332495500000     0.743135915000     0.058004855000    -0.081823   
C72      C      0.332495500000     0.743135915000     0.558004855000    -0.081823   
C72      C      0.832495500000     0.243135915000     0.058004855000    -0.081823   
C72      C      0.832495500000     0.243135915000     0.558004855000    -0.081823   
C72      C      0.832495500000     0.743135915000     0.058004855000    -0.081823   
C72      C      0.832495500000     0.743135915000     0.558004855000    -0.081823   
C73      C      0.283815600000     0.221846650000     0.304554950000    -1.11277    
C73      C      0.283815600000     0.221846650000     0.804554950000    -1.11277    
C73      C      0.283815600000     0.721846650000     0.304554950000    -1.11277    
C73      C      0.283815600000     0.721846650000     0.804554950000    -1.11277    
C73      C      0.783815600000     0.221846650000     0.304554950000    -1.11277    
C73      C      0.783815600000     0.221846650000     0.804554950000    -1.11277    
C73      C      0.783815600000     0.721846650000     0.304554950000    -1.11277    
C73      C      0.783815600000     0.721846650000     0.804554950000    -1.11277    
C74      C      0.410261850000     0.262619150000     0.315457435000     0.325941   
C74      C      0.410261850000     0.262619150000     0.815457435000     0.325941   
C74      C      0.410261850000     0.762619150000     0.315457435000     0.325941   
C74      C      0.410261850000     0.762619150000     0.815457435000     0.325941   
C74      C      0.910261850000     0.262619150000     0.315457435000     0.325941   
C74      C      0.910261850000     0.262619150000     0.815457435000     0.325941   
C74      C      0.910261850000     0.762619150000     0.315457435000     0.325941   
C74      C      0.910261850000     0.762619150000     0.815457435000     0.325941   
C75      C      0.207129210000     0.230716200000     0.044869125000     0.126142   
C75      C      0.207129210000     0.230716200000     0.544869125000     0.126142   
C75      C      0.207129210000     0.730716200000     0.044869125000     0.126142   
C75      C      0.207129210000     0.730716200000     0.544869125000     0.126142   
C75      C      0.707129210000     0.230716200000     0.044869125000     0.126142   
C75      C      0.707129210000     0.230716200000     0.544869125000     0.126142   
C75      C      0.707129210000     0.730716200000     0.044869125000     0.126142   
C75      C      0.707129210000     0.730716200000     0.544869125000     0.126142   
C76      C      0.345091600000     0.246076350000     0.024482665000     0.054317   
C76      C      0.345091600000     0.246076350000     0.524482665000     0.054317   
C76      C      0.345091600000     0.746076350000     0.024482665000     0.054317   
C76      C      0.345091600000     0.746076350000     0.524482665000     0.054317   
C76      C      0.845091600000     0.246076350000     0.024482665000     0.054317   
C76      C      0.845091600000     0.246076350000     0.524482665000     0.054317   
C76      C      0.845091600000     0.746076350000     0.024482665000     0.054317   
C76      C      0.845091600000     0.746076350000     0.524482665000     0.054317   
C77      C      0.275214880000     0.224194260000     0.338593425000    -0.091156   
C77      C      0.275214880000     0.224194260000     0.838593425000    -0.091156   
C77      C      0.275214880000     0.724194260000     0.338593425000    -0.091156   
C77      C      0.275214880000     0.724194260000     0.838593425000    -0.091156   
C77      C      0.775214880000     0.224194260000     0.338593425000    -0.091156   
C77      C      0.775214880000     0.224194260000     0.838593425000    -0.091156   
C77      C      0.775214880000     0.724194260000     0.338593425000    -0.091156   
C77      C      0.775214880000     0.724194260000     0.838593425000    -0.091156   
C78      C      0.401886435000     0.264105050000     0.349563800000    -0.052465   
C78      C      0.401886435000     0.264105050000     0.849563800000    -0.052465   
C78      C      0.401886435000     0.764105050000     0.349563800000    -0.052465   
C78      C      0.401886435000     0.764105050000     0.849563800000    -0.052465   
C78      C      0.901886435000     0.264105050000     0.349563800000    -0.052465   
C78      C      0.901886435000     0.264105050000     0.849563800000    -0.052465   
C78      C      0.901886435000     0.764105050000     0.349563800000    -0.052465   
C78      C      0.901886435000     0.764105050000     0.849563800000    -0.052465   
C79      C      0.219551580000     0.232777285000     0.011247815000     0.063732   
C79      C      0.219551580000     0.232777285000     0.511247815000     0.063732   
C79      C      0.219551580000     0.732777285000     0.011247815000     0.063732   
C79      C      0.219551580000     0.732777285000     0.511247815000     0.063732   
C79      C      0.719551580000     0.232777285000     0.011247815000     0.063732   
C79      C      0.719551580000     0.232777285000     0.511247815000     0.063732   
C79      C      0.719551580000     0.732777285000     0.011247815000     0.063732   
C79      C      0.719551580000     0.732777285000     0.511247815000     0.063732   
C80      C      0.010935475000     0.218368335000     0.153088540000    -0.081138   
C80      C      0.010935475000     0.218368335000     0.653088540000    -0.081138   
C80      C      0.010935475000     0.718368335000     0.153088540000    -0.081138   
C80      C      0.010935475000     0.718368335000     0.653088540000    -0.081138   
C80      C      0.510935475000     0.218368335000     0.153088540000    -0.081138   
C80      C      0.510935475000     0.218368335000     0.653088540000    -0.081138   
C80      C      0.510935475000     0.718368335000     0.153088540000    -0.081138   
C80      C      0.510935475000     0.718368335000     0.653088540000    -0.081138   
C81      C      0.034287670000     0.264010000000     0.206377075000    -0.138232   
C81      C      0.034287670000     0.264010000000     0.706377075000    -0.138232   
C81      C      0.034287670000     0.764010000000     0.206377075000    -0.138232   
C81      C      0.034287670000     0.764010000000     0.706377075000    -0.138232   
C81      C      0.534287670000     0.264010000000     0.206377075000    -0.138232   
C81      C      0.534287670000     0.264010000000     0.706377075000    -0.138232   
C81      C      0.534287670000     0.764010000000     0.206377075000    -0.138232   
C81      C      0.534287670000     0.764010000000     0.706377075000    -0.138232   
C82      C      0.105097905000     0.259533350000     0.206739185000    -0.223318   
C82      C      0.105097905000     0.259533350000     0.706739185000    -0.223318   
C82      C      0.105097905000     0.759533350000     0.206739185000    -0.223318   
C82      C      0.105097905000     0.759533350000     0.706739185000    -0.223318   
C82      C      0.605097905000     0.259533350000     0.206739185000    -0.223318   
C82      C      0.605097905000     0.259533350000     0.706739185000    -0.223318   
C82      C      0.605097905000     0.759533350000     0.206739185000    -0.223318   
C82      C      0.605097905000     0.759533350000     0.706739185000    -0.223318   
C83      C      0.079418780000     0.211977200000     0.154466080000    -0.038639   
C83      C      0.079418780000     0.211977200000     0.654466080000    -0.038639   
C83      C      0.079418780000     0.711977200000     0.154466080000    -0.038639   
C83      C      0.079418780000     0.711977200000     0.654466080000    -0.038639   
C83      C      0.579418780000     0.211977200000     0.154466080000    -0.038639   
C83      C      0.579418780000     0.211977200000     0.654466080000    -0.038639   
C83      C      0.579418780000     0.711977200000     0.154466080000    -0.038639   
C83      C      0.579418780000     0.711977200000     0.654466080000    -0.038639   
C84      C      0.058063420000     0.157558650000     0.136115565000    -0.049      
C84      C      0.058063420000     0.157558650000     0.636115565000    -0.049      
C84      C      0.058063420000     0.657558650000     0.136115565000    -0.049      
C84      C      0.058063420000     0.657558650000     0.636115565000    -0.049      
C84      C      0.558063420000     0.157558650000     0.136115565000    -0.049      
C84      C      0.558063420000     0.157558650000     0.636115565000    -0.049      
C84      C      0.558063420000     0.657558650000     0.136115565000    -0.049      
C84      C      0.558063420000     0.657558650000     0.636115565000    -0.049      
C85      C      0.482278315000     0.164533480000     0.132710280000    -0.497896   
C85      C      0.482278315000     0.164533480000     0.632710280000    -0.497896   
C85      C      0.482278315000     0.664533480000     0.132710280000    -0.497896   
C85      C      0.482278315000     0.664533480000     0.632710280000    -0.497896   
C85      C      0.982278315000     0.164533480000     0.132710280000    -0.497896   
C85      C      0.982278315000     0.164533480000     0.632710280000    -0.497896   
C85      C      0.982278315000     0.664533480000     0.132710280000    -0.497896   
C85      C      0.982278315000     0.664533480000     0.632710280000    -0.497896   
C86      C      0.066749050000     0.114506505000     0.083057910000    -0.416994   
C86      C      0.066749050000     0.114506505000     0.583057910000    -0.416994   
C86      C      0.066749050000     0.614506505000     0.083057910000    -0.416994   
C86      C      0.066749050000     0.614506505000     0.583057910000    -0.416994   
C86      C      0.566749050000     0.114506505000     0.083057910000    -0.416994   
C86      C      0.566749050000     0.114506505000     0.583057910000    -0.416994   
C86      C      0.566749050000     0.614506505000     0.083057910000    -0.416994   
C86      C      0.566749050000     0.614506505000     0.583057910000    -0.416994   
C87      C      0.072966935000     0.133284015000     0.048206175000    -0.411506   
C87      C      0.072966935000     0.133284015000     0.548206175000    -0.411506   
C87      C      0.072966935000     0.633284015000     0.048206175000    -0.411506   
C87      C      0.072966935000     0.633284015000     0.548206175000    -0.411506   
C87      C      0.572966935000     0.133284015000     0.048206175000    -0.411506   
C87      C      0.572966935000     0.133284015000     0.548206175000    -0.411506   
C87      C      0.572966935000     0.633284015000     0.048206175000    -0.411506   
C87      C      0.572966935000     0.633284015000     0.548206175000    -0.411506   
C88      C      0.043384450000     0.087119260000     0.021361590000    -0.416061   
C88      C      0.043384450000     0.087119260000     0.521361590000    -0.416061   
C88      C      0.043384450000     0.587119260000     0.021361590000    -0.416061   
C88      C      0.043384450000     0.587119260000     0.521361590000    -0.416061   
C88      C      0.543384450000     0.087119260000     0.021361590000    -0.416061   
C88      C      0.543384450000     0.087119260000     0.521361590000    -0.416061   
C88      C      0.543384450000     0.587119260000     0.021361590000    -0.416061   
C88      C      0.543384450000     0.587119260000     0.521361590000    -0.416061   
C89      C      0.392192720000     0.164209320000     0.090624130000    -0.432671   
C89      C      0.392192720000     0.164209320000     0.590624130000    -0.432671   
C89      C      0.392192720000     0.664209320000     0.090624130000    -0.432671   
C89      C      0.392192720000     0.664209320000     0.590624130000    -0.432671   
C89      C      0.892192720000     0.164209320000     0.090624130000    -0.432671   
C89      C      0.892192720000     0.164209320000     0.590624130000    -0.432671   
C89      C      0.892192720000     0.664209320000     0.090624130000    -0.432671   
C89      C      0.892192720000     0.664209320000     0.590624130000    -0.432671   
C90      C      0.363893750000     0.119849935000     0.062339050000    -0.186225   
C90      C      0.363893750000     0.119849935000     0.562339050000    -0.186225   
C90      C      0.363893750000     0.619849935000     0.062339050000    -0.186225   
C90      C      0.363893750000     0.619849935000     0.562339050000    -0.186225   
C90      C      0.863893750000     0.119849935000     0.062339050000    -0.186225   
C90      C      0.863893750000     0.119849935000     0.562339050000    -0.186225   
C90      C      0.863893750000     0.619849935000     0.062339050000    -0.186225   
C90      C      0.863893750000     0.619849935000     0.562339050000    -0.186225   
C91      C      0.283717275000     0.107922755000     0.055619255000    -0.39315    
C91      C      0.283717275000     0.107922755000     0.555619255000    -0.39315    
C91      C      0.283717275000     0.607922755000     0.055619255000    -0.39315    
C91      C      0.283717275000     0.607922755000     0.555619255000    -0.39315    
C91      C      0.783717275000     0.107922755000     0.055619255000    -0.39315    
C91      C      0.783717275000     0.107922755000     0.555619255000    -0.39315    
C91      C      0.783717275000     0.607922755000     0.055619255000    -0.39315    
C91      C      0.783717275000     0.607922755000     0.555619255000    -0.39315    
N92      N      0.485919900000     0.240904765000     0.180218475000    -0.392264   
N92      N      0.485919900000     0.240904765000     0.680218475000    -0.392264   
N92      N      0.485919900000     0.740904765000     0.180218475000    -0.392264   
N92      N      0.485919900000     0.740904765000     0.680218475000    -0.392264   
N92      N      0.985919900000     0.240904765000     0.180218475000    -0.392264   
N92      N      0.985919900000     0.240904765000     0.680218475000    -0.392264   
N92      N      0.985919900000     0.740904765000     0.180218475000    -0.392264   
N92      N      0.985919900000     0.740904765000     0.680218475000    -0.392264   
N93      N      0.126602230000     0.231307060000     0.181196675000    -0.26464    
N93      N      0.126602230000     0.231307060000     0.681196675000    -0.26464    
N93      N      0.126602230000     0.731307060000     0.181196675000    -0.26464    
N93      N      0.126602230000     0.731307060000     0.681196675000    -0.26464    
N93      N      0.626602230000     0.231307060000     0.181196675000    -0.26464    
N93      N      0.626602230000     0.231307060000     0.681196675000    -0.26464    
N93      N      0.626602230000     0.731307060000     0.181196675000    -0.26464    
N93      N      0.626602230000     0.731307060000     0.681196675000    -0.26464    
N94      N      0.063448150000     0.114716700000     0.156736880000    -0.311884   
N94      N      0.063448150000     0.114716700000     0.656736880000    -0.311884   
N94      N      0.063448150000     0.614716700000     0.156736880000    -0.311884   
N94      N      0.063448150000     0.614716700000     0.656736880000    -0.311884   
N94      N      0.563448150000     0.114716700000     0.156736880000    -0.311884   
N94      N      0.563448150000     0.114716700000     0.656736880000    -0.311884   
N94      N      0.563448150000     0.614716700000     0.156736880000    -0.311884   
N94      N      0.563448150000     0.614716700000     0.656736880000    -0.311884   
N95      N      0.430613815000     0.123462925000     0.148851560000    -0.211433   
N95      N      0.430613815000     0.123462925000     0.648851560000    -0.211433   
N95      N      0.430613815000     0.623462925000     0.148851560000    -0.211433   
N95      N      0.430613815000     0.623462925000     0.648851560000    -0.211433   
N95      N      0.930613815000     0.123462925000     0.148851560000    -0.211433   
N95      N      0.930613815000     0.123462925000     0.648851560000    -0.211433   
N95      N      0.930613815000     0.623462925000     0.148851560000    -0.211433   
N95      N      0.930613815000     0.623462925000     0.648851560000    -0.211433   
O96      O      0.209047020000     0.157777250000     0.190118250000    -0.091499   
O96      O      0.209047020000     0.157777250000     0.690118250000    -0.091499   
O96      O      0.209047020000     0.657777250000     0.190118250000    -0.091499   
O96      O      0.209047020000     0.657777250000     0.690118250000    -0.091499   
O96      O      0.709047020000     0.157777250000     0.190118250000    -0.091499   
O96      O      0.709047020000     0.157777250000     0.690118250000    -0.091499   
O96      O      0.709047020000     0.657777250000     0.190118250000    -0.091499   
O96      O      0.709047020000     0.657777250000     0.690118250000    -0.091499   
O97      O      0.324302525000     0.157435300000     0.191048160000    -0.108769   
O97      O      0.324302525000     0.157435300000     0.691048160000    -0.108769   
O97      O      0.324302525000     0.657435300000     0.191048160000    -0.108769   
O97      O      0.324302525000     0.657435300000     0.691048160000    -0.108769   
O97      O      0.824302525000     0.157435300000     0.191048160000    -0.108769   
O97      O      0.824302525000     0.157435300000     0.691048160000    -0.108769   
O97      O      0.824302525000     0.657435300000     0.191048160000    -0.108769   
O97      O      0.824302525000     0.657435300000     0.691048160000    -0.108769   
O98      O      0.291348515000     0.318435950000     0.168335525000    -0.209318   
O98      O      0.291348515000     0.318435950000     0.668335525000    -0.209318   
O98      O      0.291348515000     0.818435950000     0.168335525000    -0.209318   
O98      O      0.291348515000     0.818435950000     0.668335525000    -0.209318   
O98      O      0.791348515000     0.318435950000     0.168335525000    -0.209318   
O98      O      0.791348515000     0.318435950000     0.668335525000    -0.209318   
O98      O      0.791348515000     0.818435950000     0.168335525000    -0.209318   
O98      O      0.791348515000     0.818435950000     0.668335525000    -0.209318   
O99      O      0.406604020000     0.318094015000     0.169265435000    -0.109212   
O99      O      0.406604020000     0.318094015000     0.669265435000    -0.109212   
O99      O      0.406604020000     0.818094015000     0.169265435000    -0.109212   
O99      O      0.406604020000     0.818094015000     0.669265435000    -0.109212   
O99      O      0.906604020000     0.318094015000     0.169265435000    -0.109212   
O99      O      0.906604020000     0.318094015000     0.669265435000    -0.109212   
O99      O      0.906604020000     0.818094015000     0.169265435000    -0.109212   
O99      O      0.906604020000     0.818094015000     0.669265435000    -0.109212   
O100     O      0.126394690000     0.071874560000     0.212167425000     1.64987    
O100     O      0.126394690000     0.071874560000     0.712167425000     1.64987    
O100     O      0.126394690000     0.571874560000     0.212167425000     1.64987    
O100     O      0.126394690000     0.571874560000     0.712167425000     1.64987    
O100     O      0.626394690000     0.071874560000     0.212167425000     1.64987    
O100     O      0.626394690000     0.071874560000     0.712167425000     1.64987    
O100     O      0.626394690000     0.571874560000     0.212167425000     1.64987    
O100     O      0.626394690000     0.571874560000     0.712167425000     1.64987    
O101     O      0.308322370000     0.236501860000     0.235412775000     1.17472    
O101     O      0.308322370000     0.236501860000     0.735412775000     1.17472    
O101     O      0.308322370000     0.736501860000     0.235412775000     1.17472    
O101     O      0.308322370000     0.736501860000     0.735412775000     1.17472    
O101     O      0.808322370000     0.236501860000     0.235412775000     1.17472    
O101     O      0.808322370000     0.236501860000     0.735412775000     1.17472    
O101     O      0.808322370000     0.736501860000     0.235412775000     1.17472    
O101     O      0.808322370000     0.736501860000     0.735412775000     1.17472    
O102     O      0.303284700000     0.236608350000     0.125206000000     1.17133    
O102     O      0.303284700000     0.236608350000     0.625206000000     1.17133    
O102     O      0.303284700000     0.736608350000     0.125206000000     1.17133    
O102     O      0.303284700000     0.736608350000     0.625206000000     1.17133    
O102     O      0.803284700000     0.236608350000     0.125206000000     1.17133    
O102     O      0.803284700000     0.236608350000     0.625206000000     1.17133    
O102     O      0.803284700000     0.736608350000     0.125206000000     1.17133    
O102     O      0.803284700000     0.736608350000     0.625206000000     1.17133    
O103     O      0.187673865000     0.231522040000     0.113577010000     0.054285   
O103     O      0.187673865000     0.231522040000     0.613577010000     0.054285   
O103     O      0.187673865000     0.731522040000     0.113577010000     0.054285   
O103     O      0.187673865000     0.731522040000     0.613577010000     0.054285   
O103     O      0.687673865000     0.231522040000     0.113577010000     0.054285   
O103     O      0.687673865000     0.231522040000     0.613577010000     0.054285   
O103     O      0.687673865000     0.731522040000     0.113577010000     0.054285   
O103     O      0.687673865000     0.731522040000     0.613577010000     0.054285   
O104     O      0.423933250000     0.241588190000     0.247041730000    -0.007725   
O104     O      0.423933250000     0.241588190000     0.747041730000    -0.007725   
O104     O      0.423933250000     0.741588190000     0.247041730000    -0.007725   
O104     O      0.423933250000     0.741588190000     0.747041730000    -0.007725   
O104     O      0.923933250000     0.241588190000     0.247041730000    -0.007725   
O104     O      0.923933250000     0.241588190000     0.747041730000    -0.007725   
O104     O      0.923933250000     0.741588190000     0.247041730000    -0.007725   
O104     O      0.923933250000     0.741588190000     0.747041730000    -0.007725   
O105     O      0.095881760000     0.158965560000     0.106758935000     0.023792   
O105     O      0.095881760000     0.158965560000     0.606758935000     0.023792   
O105     O      0.095881760000     0.658965560000     0.106758935000     0.023792   
O105     O      0.095881760000     0.658965560000     0.606758935000     0.023792   
O105     O      0.595881760000     0.158965560000     0.106758935000     0.023792   
O105     O      0.595881760000     0.158965560000     0.606758935000     0.023792   
O105     O      0.595881760000     0.658965560000     0.106758935000     0.023792   
O105     O      0.595881760000     0.658965560000     0.606758935000     0.023792   
O106     O      0.074574300000     0.124083675000     0.188944725000     0.015758   
O106     O      0.074574300000     0.124083675000     0.688944725000     0.015758   
O106     O      0.074574300000     0.624083675000     0.188944725000     0.015758   
O106     O      0.074574300000     0.624083675000     0.688944725000     0.015758   
O106     O      0.574574300000     0.124083675000     0.188944725000     0.015758   
O106     O      0.574574300000     0.124083675000     0.688944725000     0.015758   
O106     O      0.574574300000     0.624083675000     0.188944725000     0.015758   
O106     O      0.574574300000     0.624083675000     0.688944725000     0.015758   
O107     O      0.039808795000     0.065357290000     0.144236775000     0.083331   
O107     O      0.039808795000     0.065357290000     0.644236775000     0.083331   
O107     O      0.039808795000     0.565357290000     0.144236775000     0.083331   
O107     O      0.039808795000     0.565357290000     0.644236775000     0.083331   
O107     O      0.539808795000     0.065357290000     0.144236775000     0.083331   
O107     O      0.539808795000     0.065357290000     0.644236775000     0.083331   
O107     O      0.539808795000     0.565357290000     0.144236775000     0.083331   
O107     O      0.539808795000     0.565357290000     0.644236775000     0.083331   
O108     O      0.464381100000     0.169111150000     0.098757975000     0.061249   
O108     O      0.464381100000     0.169111150000     0.598757975000     0.061249   
O108     O      0.464381100000     0.669111150000     0.098757975000     0.061249   
O108     O      0.464381100000     0.669111150000     0.598757975000     0.061249   
O108     O      0.964381100000     0.169111150000     0.098757975000     0.061249   
O108     O      0.964381100000     0.169111150000     0.598757975000     0.061249   
O108     O      0.964381100000     0.669111150000     0.098757975000     0.061249   
O108     O      0.964381100000     0.669111150000     0.598757975000     0.061249   
O109     O      0.431974230000     0.125733780000     0.181189760000     0.084888   
O109     O      0.431974230000     0.125733780000     0.681189760000     0.084888   
O109     O      0.431974230000     0.625733780000     0.181189760000     0.084888   
O109     O      0.431974230000     0.625733780000     0.681189760000     0.084888   
O109     O      0.931974230000     0.125733780000     0.181189760000     0.084888   
O109     O      0.931974230000     0.125733780000     0.681189760000     0.084888   
O109     O      0.931974230000     0.625733780000     0.181189760000     0.084888   
O109     O      0.931974230000     0.625733780000     0.681189760000     0.084888   
O110     O      0.398397450000     0.078246905000     0.131923700000    -2.48287    
O110     O      0.398397450000     0.078246905000     0.631923700000    -2.48287    
O110     O      0.398397450000     0.578246905000     0.131923700000    -2.48287    
O110     O      0.398397450000     0.578246905000     0.631923700000    -2.48287    
O110     O      0.898397450000     0.078246905000     0.131923700000    -2.48287    
O110     O      0.898397450000     0.078246905000     0.631923700000    -2.48287    
O110     O      0.898397450000     0.578246905000     0.131923700000    -2.48287    
O110     O      0.898397450000     0.578246905000     0.631923700000    -2.48287    


