data_I
_chemical_name_common  'nh3_guided_samples/cif/sample_0'
_cell_length_a  7.68164
_cell_length_b  9.09222
_cell_length_c 18.29678
_cell_angle_alpha 92.67198
_cell_angle_beta  90.50841
_cell_angle_gamma 94.63037
_space_group_name_H-M_alt      'P 1'


loop_
_space_group_symop_operation_xyz
  'x, y, z' 

loop_
_atom_site_label
_atom_site_fract_x
_atom_site_fract_y
_atom_site_fract_z
_atom_site_type_symbol
Cu0   0.70755845 0.90195245 0.6349623    Cu
Cu1   0.36384463 0.8548747 0.64773196    Cu
H2    0.8852492 0.28493142 0.92661774     H
H3    0.2518834 0.7169179 0.3684693     H
H4    0.9876627 0.7782963 0.008234726     H
H5    0.07383263 0.9803755 0.26850367     H
H6    0.59690124 0.1958834 0.08774263     H
H7    0.4587502 0.5656254 0.19341873     H
H8    0.59521985 0.32677108 0.30607077     H
H9    0.4591534 0.4374411 0.97685754     H
H10   0.73895365 0.6589938 0.0052104997     H
H11   0.32051837 0.10449612 0.27342165     H
H12   0.1718247 0.47513923 0.35286412     H
H13   0.80835605 0.0431329 0.90915686     H
C14   0.7481093 0.7055972 0.22589612     C
C15   0.3776958 0.1950053 0.031000992     C
C16   0.67841214 0.5667349 0.249838     C
C17   0.8552023 0.026604772 0.9639493     C
C18   0.20408773 0.7320108 0.3136522     C
C19   0.07172656 0.8439765 0.047399484     C
C20   0.9878718 0.9146095 0.230077     C
C21   0.75769705 0.6830087 0.06347501     C
C22   0.29706398 0.07517362 0.21585122     C
C23   0.7802899 0.4857561 0.295538     C
C24   0.105346985 0.22312927 0.9651617     C
C25   0.95173013 0.53785115 0.31477445     C
C26   0.64580405 0.7872934 0.10366783     C
C27   0.4107849 0.9724021 0.17579222     C
C28   0.5538449 0.8766464 0.98429793     C
O29   0.75549185 0.96493894 0.0065627927     O
C30   0.53939694 0.8754506 0.063665375     C
C31   0.5181848 0.88523984 0.21584278     C
C32   0.41967198 0.9646909 0.09872931     C
C33   0.63747156 0.79557705 0.18077907     C
C34   0.5039177 0.884594 0.29521027     C
C35   0.035441358 0.08296347 0.98715776     C
C36   0.022727013 0.6767717 0.29156694     C
C37   0.13880168 0.99730605 0.030613542     C
C38   0.27579215 0.27635336 0.9854762     C
C39   0.9194327 0.7622678 0.24799035     C
C40   0.30903184 0.054918766 0.0537724     C
O41   0.3606065 0.8405613 0.32428128     O
O42   0.42251712 0.83237296 0.94465446     O
O43   0.6352735 0.92891276 0.33485532     O
O44   0.011568492 0.31430662 0.92410886     O
O45   0.045370936 0.44688874 0.35600367     O
O46   0.3035152 0.7910642 0.27008778     O
O47   0.106136985 0.7901201 0.10512571     O
O48   0.69718385 0.92072463 0.95522845     O
O49   0.95256406 0.96743894 0.17219141     O
O50   0.54322976 0.25584817 0.05136826     O
O51   0.51190645 0.5067919 0.23042506     O
O52   0.7183719 0.35101497 0.3214672     O
O53   0.3366538 0.41235626 0.96071017     O
O54   0.87184274 0.62195414 0.094041616     O
O55   0.17558908 0.12809956 0.18600507     O
C56   0.51188064 0.6000371 0.64467824     C
C57   0.56222403 0.16324285 0.6358021     C
C58   0.5288639 0.44635236  0.64155     C
C59   0.5452711 0.31693184 0.63893074     C
O60   0.3601161 0.6483433 0.64461046     O
O61   0.7139885 0.11493655  0.63587     O
O62   0.42430648 0.075467065 0.6329558     O
O63   0.64979815 0.68781275 0.64752454     O
N64   0.9573904 0.88382906 0.6396855     N
N65   0.11180459 0.87782145 0.63993686     N
loop_
_geom_bond_atom_site_label_1
_geom_bond_atom_site_label_2
_geom_bond_distance
_geom_bond_site_symmetry_2
_ccdc_geom_bond_type
Cu0   Cu1    2.65457       .     S
Cu0   O43    5.53288       .     S
Cu0   O48    5.85580       .     S
Cu0   O61    1.93243   1_565     S
Cu0   O63    1.98610       .     S
Cu0   N64    1.94090       .     S
Cu1   Cu0    2.65457       .     S
Cu1   O41    5.91325       .     A
Cu1   O42    5.46210       .     A
Cu1   O60    1.87393       .     D
Cu1   O62    2.05278   1_565     A
Cu1   N65    1.96860       .     S
H2    O44    0.98747   1_655     S
H3    C18    1.08352       .     D
H4    C19    1.08478   1_655     S
H5    C20    1.08477   1_455     A
H6    O50    0.98764       .     S
H7    O51    0.98766       .     D
H8    O52    0.98929       .     S
H9    O53    0.98940       .     S
H10   C21    1.08415       .     S
H11   C22    1.08434       .     D
H12   O45    0.98738       .     D
H13   C17    1.08329       .     S
C14   C16    1.42099       .     A
C14   C33    1.49527       .     A
C14   C39    1.42216       .     A
C15   C38    1.41173   1_554     A
C15   C40    1.42092       .     A
C15   O50    1.38586       .     A
C16   C14    1.42099       .     A
C16   C23    1.41157       .     S
C16   O51    1.38581       .     S
C17   H13    1.08329       .     A
C17   O29    1.22105   1_546     S
C17   C35    1.48814   1_655     S
C18   H3     1.08352       .     S
C18   C36    1.48813       .     A
C18   O46    1.22126       .     A
C19   H4     1.08478   1_455     S
C19   C37    1.49335       .     A
C19   O47    1.22040       .     S
C20   H5     1.08477   1_655     S
C20   C39    1.49338       .     A
C20   O49    1.22040       .     D
C21   H10    1.08415       .     S
C21   C26    1.50214       .     S
C21   O54    1.22008       .     D
C22   H11    1.08434       .     S
C22   C27    1.50092   1_545     S
C22   O55    1.22003       .     A
C23   C16    1.41157       .     D
C23   C25    1.39932       .     S
C23   O52    1.38430       .     A
C24   C35    1.41973       .     S
C24   C38    1.39961       .     S
C24   O44    1.38393       .     S
C25   C23    1.39932       .     S
C25   C36    1.41987   1_655     S
C25   O45    1.38386   1_655     S
C26   C21    1.50214       .     S
C26   C30    1.41285       .     S
C26   C33    1.41168       .     S
C27   C22    1.50092   1_565     A
C27   C31    1.41232       .     A
C27   C32    1.41101       .     D
C28   C30    1.45786   1_556     A
C28   O42    1.26495       .     S
C28   O48    1.27079       .     S
O29   C17    1.22105   1_564     D
C30   C26    1.41285       .     S
C30   C28    1.45786   1_554     A
C30   C32    1.41357       .     S
C31   C27    1.41232       .     D
C31   C33    1.41355       .     S
C31   C34    1.45752       .     S
C32   C27    1.41101       .     S
C32   C30    1.41357       .     D
C32   C40    1.49500   1_565     D
C33   C14    1.49527       .     S
C33   C26    1.41168       .     A
C33   C31    1.41355       .     A
C34   C31    1.45752       .     A
C34   O41    1.27051       .     A
C34   O43    1.26523       .     A
C35   C17    1.48814   1_455     A
C35   C24    1.41973       .     A
C35   C37    1.41969   1_546     S
C36   C18    1.48813       .     S
C36   C25    1.41987   1_455     A
C36   C39    1.41976   1_455     S
C37   C19    1.49335       .     S
C37   C35    1.41969   1_564     S
C37   C40    1.42224   1_565     A
C38   C15    1.41173   1_556     A
C38   C24    1.39961       .     S
C38   O53    1.38408       .     A
C39   C14    1.42216       .     S
C39   C20    1.49338       .     S
C39   C36    1.41976   1_655     A
C40   C15    1.42092       .     D
C40   C32    1.49500   1_545     S
C40   C37    1.42224   1_545     S
O41   Cu1    5.91325       .     D
O41   C34    1.27051       .     S
O42   Cu1    5.46210       .     S
O42   C28    1.26495       .     A
O43   Cu0    5.53288       .     D
O43   C34    1.26523       .     S
O44   H2     0.98747   1_455     A
O44   C24    1.38393       .     S
O45   H12    0.98738       .     S
O45   C25    1.38386   1_455     S
O46   C18    1.22126       .     S
O47   C19    1.22040       .     S
O48   Cu0    5.85580       .     D
O48   C28    1.27079       .     S
O49   C20    1.22040       .     S
O50   H6     0.98764       .     D
O50   C15    1.38586       .     S
O51   H7     0.98766       .     T
O51   C16    1.38581       .     S
O52   H8     0.98929       .     D
O52   C23    1.38430       .     S
O53   H9     0.98940       .     S
O53   C38    1.38408       .     D
O54   C21    1.22008       .     S
O55   C22    1.22003       .     T
C56   C58    1.41243       .     T
C56   O60    1.27855       .     T
C56   O63    1.27306       .     S
C57   C59    1.41242       .     S
C57   O61    1.27855       .     S
C57   O62    1.27306       .     S
C58   C56    1.41243       .     S
C58   C59    1.19233       .     S
C59   C57    1.41242       .     S
C59   C58    1.19233       .     S
O60   Cu1    1.87393       .     S
O60   C56    1.27855       .     S
O61   Cu0    1.93243   1_545     S
O61   C57    1.27855       .     S
O62   Cu1    2.05278   1_545     S
O62   C57    1.27306       .     S
O63   Cu0    1.98610       .     S
O63   C56    1.27306       .     S
N64   Cu0    1.94090       .     S
N64   N65    1.19179   1_655     S
N65   Cu1    1.96860       .     S
N65   N64    1.19179   1_455     S
