# generated using pymatgen
data_ZnH12C24NO4
_symmetry_space_group_name_H-M   'P 1'
_cell_length_a   13.39836000
_cell_length_b   13.83203000
_cell_length_c   13.46075000
_cell_angle_alpha   84.60680000
_cell_angle_beta   95.14861000
_cell_angle_gamma   88.15572000
_symmetry_Int_Tables_number   1
_chemical_formula_structural   ZnH12C24NO4
_chemical_formula_sum   'Zn2 H24 C48 N2 O8'
_cell_volume   2471.49369377
_cell_formula_units_Z   2
loop_
 _symmetry_equiv_pos_site_id
 _symmetry_equiv_pos_as_xyz
  1  'x, y, z'
loop_
 _atom_site_type_symbol
 _atom_site_label
 _atom_site_symmetry_multiplicity
 _atom_site_fract_x
 _atom_site_fract_y
 _atom_site_fract_z
 _atom_site_occupancy
  Zn  Zn0  1  0.40578803  0.69452876  0.41067368  1
  Zn  Zn1  1  0.18354583  0.74448144  0.38605914  1
  H  H2  1  0.34838787  0.61335313  0.92352620  1
  H  H3  1  0.24767660  0.81829390  0.87479496  1
  H  H4  1  0.90693593  0.33837366  0.17333767  1
  H  H5  1  0.95990500  0.38029194  0.34587800  1
  H  H6  1  0.12320922  0.31614834  0.43100566  1
  H  H7  1  0.48954020  0.25066070  0.52477340  1
  H  H8  1  0.65633220  0.16764465  0.53899670  1
  H  H9  1  0.70515084  0.06947178  0.40294853  1
  H  H10  1  0.58511300  0.04974920  0.25840430  1
  H  H11  1  0.41789892  0.13220622  0.24267694  1
  H  H12  1  0.17893052  0.16972966  0.17123228  1
  H  H13  1  0.01685937  0.23583037  0.08659175  1
  H  H14  1  0.90547293  0.62029660  0.30543460  1
  H  H15  1  0.68923223  0.81406206  0.49923557  1
  H  H16  1  0.82041186  0.46427890  0.33740577  1
  H  H17  1  0.75098840  0.33978510  0.23474290  1
  H  H18  1  0.60024920  0.37850398  0.11514371  1
  H  H19  1  0.52027184  0.54400206  0.09659006  1
  H  H20  1  0.59072960  0.67077620  0.19424270  1
  H  H21  1  0.77252936  0.96547270  0.49289990  1
  H  H22  1  0.84143883  0.07582593  0.61230400  1
  H  H23  1  0.99389960  0.02642071  0.72606826  1
  H  H24  1  0.07716000  0.86483840  0.72023964  1
  H  H25  1  0.00473607  0.74950206  0.60905820  1
  C  C26  1  0.30639890  0.71472960  0.58010375  1
  C  C27  1  0.28365022  0.72474400  0.21775603  1
  C  C28  1  0.31548765  0.70019525  0.68509410  1
  C  C29  1  0.27493270  0.73541180  0.11274290  1
  C  C30  1  0.27625012  0.75218450  0.91937110  1
  C  C31  1  0.31798872  0.67906780  0.87895210  1
  C  C32  1  0.31957734  0.68775700  0.77386147  1
  C  C33  1  0.27272720  0.74470320  0.02405238  1
  C  C34  1  0.26207790  0.09200615  0.38245720  1
  C  C35  1  0.44154066  0.19696115  0.38308725  1
  C  C36  1  0.50978310  0.20722708  0.46619660  1
  C  C37  1  0.60436750  0.16016853  0.47429200  1
  C  C38  1  0.63161700  0.10422376  0.39882162  1
  C  C39  1  0.56400640  0.09365883  0.31619233  1
  C  C40  1  0.46944523  0.14017062  0.30788660  1
  C  C41  1  0.16219464  0.23867580  0.30704720  1
  C  C42  1  0.13179076  0.21617837  0.20964856  1
  C  C43  1  0.04007046  0.25285915  0.16173118  1
  C  C44  1  0.97798210  0.31115478  0.21110496  1
  C  C45  1  0.00803679  0.33462080  0.30790037  1
  C  C46  1  0.10031375  0.29855594  0.35591954  1
  C  C47  1  0.30586293  0.53670704  0.37021887  1
  C  C48  1  0.28573510  0.90530370  0.42818853  1
  C  C49  1  0.27058625  0.00652128  0.40490583  1
  C  C50  1  0.32230034  0.43482375  0.37317820  1
  C  C51  1  0.25723296  0.19473276  0.35733187  1
  C  C52  1  0.34053397  0.24539769  0.37268922  1
  C  C53  1  0.33284363  0.34874555  0.37276247  1
  C  C54  1  0.75301140  0.65240240  0.33763185  1
  C  C55  1  0.84203696  0.78217940  0.46746190  1
  C  C56  1  0.69085930  0.70980940  0.39117604  1
  C  C57  1  0.90407160  0.72766270  0.41080338  1
  C  C58  1  0.73657230  0.77298900  0.45568597  1
  C  C59  1  0.85834086  0.66306853  0.34761600  1
  C  C60  1  0.58087110  0.70298980  0.38435504  1
  C  C61  1  0.01398015  0.73696375  0.41540980  1
  C  C62  1  0.71101820  0.57767737  0.27441645  1
  C  C63  1  0.75570350  0.48331420  0.28416917  1
  C  C64  1  0.71609310  0.41209370  0.22662220  1
  C  C65  1  0.63121200  0.43388745  0.15915730  1
  C  C66  1  0.58631540  0.52719370  0.14850660  1
  C  C67  1  0.62639000  0.59897990  0.20488617  1
  C  C68  1  0.88436073  0.84923120  0.53954226  1
  C  C69  1  0.83797000  0.94147320  0.54339190  1
  C  C70  1  0.87717660  0.00478911  0.61062056  1
  C  C71  1  0.96308480  0.97701216  0.67469573  1
  C  C72  1  0.00969482  0.88575600  0.67183185  1
  C  C73  1  0.96947217  0.82128320  0.60653230  1
  N  N74  1  0.10108828  0.74421030  0.42023430  1
  N  N75  1  0.49365023  0.69743603  0.37805405  1
  O  O76  1  0.38524023  0.69978420  0.53455704  1
  O  O77  1  0.21825725  0.73522890  0.53409380  1
  O  O78  1  0.37178650  0.70501244  0.26368916  1
  O  O79  1  0.20480351  0.74045710  0.26322590  1
  O  O80  1  0.38600552  0.59094644  0.37721920  1
  O  O81  1  0.20544790  0.85123050  0.42314288  1
  O  O82  1  0.21092802  0.56930727  0.35663130  1
  O  O83  1  0.38052540  0.87286970  0.44373077  1
