# generated using pymatgen
data_ZnH13C21(NO2)2
_symmetry_space_group_name_H-M   'P 1'
_cell_length_a   12.69732000
_cell_length_b   13.68734000
_cell_length_c   15.28099000
_cell_angle_alpha   87.42751000
_cell_angle_beta   74.25578000
_cell_angle_gamma   82.23594000
_symmetry_Int_Tables_number   1
_chemical_formula_structural   ZnH13C21(NO2)2
_chemical_formula_sum   'Zn2 H26 C42 N4 O8'
_cell_volume   2532.55981133
_cell_formula_units_Z   2
loop_
 _symmetry_equiv_pos_site_id
 _symmetry_equiv_pos_as_xyz
  1  'x, y, z'
loop_
 _atom_site_type_symbol
 _atom_site_label
 _atom_site_symmetry_multiplicity
 _atom_site_fract_x
 _atom_site_fract_y
 _atom_site_fract_z
 _atom_site_occupancy
  Zn  Zn0  1  0.21902438  0.78251710  0.87645910  1
  Zn  Zn1  1  0.47346056  0.74674207  0.82168096  1
  H  H2  1  0.59756610  0.58022800  0.20621346  1
  H  H3  1  0.05863067  0.70534277  0.50774640  1
  H  H4  1  0.30273744  0.75423187  0.15512290  1
  H  H5  1  0.38472366  0.73229780  0.54479444  1
  H  H6  1  0.95162433  0.82870140  0.24598527  1
  H  H7  1  0.73350304  0.64284080  0.45499760  1
  H  H8  1  0.71484110  0.59784870  0.30665994  1
  H  H9  1  0.95515810  0.77641803  0.40110530  1
  H  H10  1  0.48717022  0.59435560  0.10325482  1
  H  H11  1  0.39883664  0.44911745  0.17942977  1
  H  H12  1  0.34775360  0.50359650  0.08653618  1
  H  H13  1  0.26962054  0.53063410  0.20169908  1
  H  H14  1  0.16522308  0.66686340  0.61239964  1
  H  H15  1  0.26741720  0.51880306  0.64582884  1
  H  H16  1  0.34851938  0.50991380  0.52943176  1
  H  H17  1  0.20395114  0.49255913  0.55845934  1
  H  H18  1  0.46945158  0.24934621  0.79911417  1
  H  H19  1  0.22077999  0.28149750  0.89893970  1
  H  H20  1  0.04369175  0.01202726  0.87583300  1
  H  H21  1  0.84681650  0.04984391  0.88106780  1
  H  H22  1  0.67519990  0.99333143  0.87497430  1
  H  H23  1  0.95647603  0.60156405  0.80822015  1
  H  H24  1  0.84555160  0.47964785  0.78703280  1
  H  H25  1  0.04067397  0.71054804  0.84117640  1
  H  H26  1  0.64327526  0.52436817  0.80934507  1
  H  H27  1  0.57227945  0.86497450  0.85910430  1
  C  C28  1  0.42259026  0.62737780  0.24054381  1
  C  C29  1  0.23543845  0.66997576  0.47259355  1
  C  C30  1  0.52548350  0.60871230  0.25924814  1
  C  C31  1  0.13425070  0.69969350  0.45312040  1
  C  C32  1  0.56354030  0.70819630  0.60315480  1
  C  C33  1  0.12947983  0.81402960  0.09428707  1
  C  C34  1  0.55864790  0.68815110  0.51112664  1
  C  C35  1  0.12782978  0.79194134  0.18924540  1
  C  C36  1  0.64145327  0.62367130  0.35954590  1
  C  C37  1  0.03121054  0.76770425  0.34703335  1
  C  C38  1  0.65235530  0.65081180  0.44334495  1
  C  C39  1  0.02938999  0.79900540  0.25914633  1
  C  C40  1  0.45484492  0.69610280  0.49494800  1
  C  C41  1  0.22661857  0.75185030  0.20766225  1
  C  C42  1  0.44113356  0.66101444  0.41497812  1
  C  C43  1  0.22865770  0.71194420  0.29287022  1
  C  C44  1  0.53645486  0.63049495  0.34431130  1
  C  C45  1  0.13077721  0.72605526  0.36469358  1
  C  C46  1  0.33506906  0.66491340  0.40072337  1
  C  C47  1  0.32834837  0.66710040  0.30999440  1
  C  C48  1  0.35441676  0.51642200  0.15596762  1
  C  C49  1  0.26531208  0.53466790  0.57436380  1
  C  C50  1  0.37281013  0.39261144  0.83067630  1
  C  C51  1  0.31740645  0.13823046  0.86735400  1
  C  C52  1  0.32756890  0.58274895  0.83872460  1
  C  C53  1  0.36262010  0.94808130  0.85922310  1
  C  C54  1  0.33697876  0.05097914  0.86411333  1
  C  C55  1  0.35323146  0.47986406  0.83386990  1
  C  C56  1  0.30189252  0.24219629  0.86798110  1
  C  C57  1  0.38833874  0.28864710  0.83007985  1
  C  C58  1  0.88645023  0.97435800  0.87178080  1
  C  C59  1  0.69361390  0.57858104  0.81762654  1
  C  C60  1  0.80650870  0.55376080  0.80578667  1
  C  C61  1  0.86950590  0.62470570  0.81820920  1
  C  C62  1  0.82048774  0.72252200  0.83927540  1
  C  C63  1  0.70569160  0.74495780  0.84667690  1
  C  C64  1  0.88145570  0.79923430  0.84989200  1
  C  C65  1  0.82784766  0.89748114  0.86287683  1
  C  C66  1  0.71645206  0.91831475  0.86624104  1
  C  C67  1  0.65651500  0.84326200  0.85830516  1
  C  C68  1  0.99395955  0.78285380  0.84845990  1
  C  C69  1  0.99731815  0.95341640  0.86889553  1
  N  N70  1  0.41406322  0.59976640  0.15403707  1
  N  N71  1  0.23489015  0.63929640  0.56317220  1
  N  N72  1  0.04760873  0.85925376  0.85789190  1
  N  N73  1  0.64497520  0.67157084  0.83927590  1
  O  O74  1  0.65436610  0.68879354  0.62574040  1
  O  O75  1  0.03930330  0.83760834  0.07140995  1
  O  O76  1  0.47275534  0.73134017  0.66407980  1
  O  O77  1  0.22091411  0.79506165  0.03307056  1
  O  O78  1  0.40650073  0.63505656  0.80412450  1
  O  O79  1  0.28369454  0.89578485  0.89383507  1
  O  O80  1  0.22693592  0.61995030  0.87752420  1
  O  O81  1  0.46325940  0.91089100  0.82043535  1
