data_sample_6_relaxed_charged

_audit_creation_method RASPA-1.0
_audit_creation_date 2026-2-5
_audit_author_name ''

_cell_length_a    30.0094
_cell_length_b    34.4012
_cell_length_c    37.5356
_cell_angle_alpha 88.6455
_cell_angle_beta  84.4793
_cell_angle_gamma 74.0639
_cell_volume      37088

_symmetry_cell_setting          triclinic
_symmetry_space_group_name_Hall 'P 1'
_symmetry_space_group_name_H-M  'P 1'
_symmetry_Int_Tables_number     1

_symmetry_equiv_pos_as_xyz 'x,y,z'

loop_
_atom_site_label
_atom_site_type_symbol
_atom_site_fract_x
_atom_site_fract_y
_atom_site_fract_z
_atom_site_charge
Zn0      Zn     0.433768950000     0.282607615000     0.105691230000     1.11326    
Zn1      Zn     0.002239110000     0.212436690000     0.064021245000     1.1319     
H2       H      0.479861915000     0.178913770000     0.413947880000     0.076642   
H3       H      0.457804050000     0.318586470000     0.254881235000     0.075567   
H4       H      0.474894500000     0.303738150000     0.418721950000     0.075311   
H5       H      0.462773900000     0.193763735000     0.250106900000     0.074494   
H6       H      0.426468450000     0.206923650000     0.370944025000     0.056517   
H7       H      0.011197510000     0.290576520000     0.297885050000     0.05104    
H8       H      0.017900170000     0.284753235000     0.362141220000     0.050473   
H9       H      0.419765830000     0.212746950000     0.306687900000     0.053515   
H10      H      0.494725850000     0.155330690000     0.010160985000     0.044751   
H11      H      0.442940000000     0.342169550000     0.158668150000    -0.196744   
H12      H      0.480337650000     0.309685450000     0.017090080000    -0.014587   
H13      H      0.457325900000     0.187813075000     0.151739270000     0.006023   
H14      H      0.003328620000     0.012893080000     0.058615160000     0.018451   
H15      H      0.434262100000     0.483465300000     0.110359860000     0.044903   
H16      H      0.451469650000     0.426656150000     0.075383080000    -0.002526   
H17      H      0.486119630000     0.069707750000     0.093596725000     0.059606   
H18      H      0.445058700000     0.140879750000     0.100346930000     0.019775   
H19      H      0.492531900000     0.355478735000     0.068628075000    -0.128955   
H20      H      0.135636350000     0.194705900000     0.039476385000     0.052452   
H21      H      0.026563720000     0.323352130000     0.156862735000     0.178152   
H22      H      0.408982935000     0.171162750000     0.011669130000     0.195529   
H23      H      0.300477150000     0.301195400000     0.128422250000     0.054821   
H24      H      0.225410610000     0.309577000000     0.157750725000     0.099763   
H25      H      0.210624320000     0.186525180000     0.010044415000     0.071194   
C26      C      0.483491850000     0.201879440000     0.466552650000     0.06042    
C27      C      0.454174130000     0.295620770000     0.202276515000     0.011763   
C28      C      0.482001750000     0.271443935000     0.469051270000     0.056837   
C29      C      0.455664215000     0.226056280000     0.199777885000     0.050892   
C30      C      0.479744700000     0.205193535000     0.429327935000    -0.065478   
C31      C      0.457921775000     0.292306200000     0.239506065000    -0.048      
C32      C      0.477984400000     0.274871825000     0.431864025000    -0.064816   
C33      C      0.459681570000     0.222628370000     0.236965100000    -0.063505   
C34      C      0.476880600000     0.241758240000     0.411564975000     0.053753   
C35      C      0.460785800000     0.255741550000     0.257269050000     0.045519   
C36      C      0.445519550000     0.224999190000     0.355316950000    -0.025381   
C37      C      0.492146880000     0.272500635000     0.313517050000     0.016644   
C38      C      0.496003925000     0.269149570000     0.350493300000     0.013634   
C39      C      0.441662050000     0.228350625000     0.318335770000    -0.026175   
C40      C      0.464912685000     0.252156080000     0.296831965000    -0.005465   
C41      C      0.472753800000     0.245343670000     0.372002000000    -0.006544   
C42      C      0.486354680000     0.161784990000     0.483184900000     0.111776   
C43      C      0.451303700000     0.335718335000     0.185645280000     0.143371   
C44      C      0.482894050000     0.308272480000     0.488491650000     0.103177   
C45      C      0.454771965000     0.189227775000     0.180337460000     0.073362   
C46      C      0.086028455000     0.321152420000     0.055767600000     0.283191   
C47      C      0.351562085000     0.175206125000     0.113207445000     0.291286   
C48      C      0.376176500000     0.131570700000     0.108257955000    -0.137929   
C49      C      0.061414065000     0.364787800000     0.060717070000    -0.137687   
C50      C      0.424897880000     0.119072555000     0.101686590000     0.06327    
C51      C      0.012692570000     0.377285950000     0.067288340000     0.035902   
C52      C      0.448492675000     0.078159630000     0.097466835000    -0.072497   
C53      C      0.489097925000     0.418198885000     0.071508215000    -0.024046   
C54      C      0.423987900000     0.048591850000     0.099224480000     0.032625   
C55      C      0.013602735000     0.447766570000     0.069750495000     0.016764   
C56      C      0.375124215000     0.060832380000     0.105867565000     0.045871   
C57      C      0.062466325000     0.435526135000     0.063107410000     0.050971   
C58      C      0.351479900000     0.101910295000     0.110214060000     0.328368   
C59      C      0.086110650000     0.394448200000     0.058760905000     0.321937   
C60      C      0.449048280000     0.004979850000     0.095290780000     0.022284   
C61      C      0.488542200000     0.491378650000     0.073684180000     0.025308   
C62      C      0.216908815000     0.291743050000     0.137283565000    -0.107026   
C63      C      0.373813270000     0.272135100000     0.083418705000     0.244203   
C64      C      0.062409090000     0.223525950000     0.084647490000     0.268311   
C65      C      0.142854365000     0.213052950000     0.060100480000    -0.023101   
C66      C      0.293294130000     0.282783350000     0.107837625000    -0.050458   
C67      C      0.107981935000     0.230538160000     0.086556555000    -0.013795   
C68      C      0.328228200000     0.265152650000     0.081472235000     0.007614   
C69      C      0.116223415000     0.255188150000     0.113424315000    -0.004967   
C70      C      0.320003850000     0.240420850000     0.054655690000    -0.052988   
C71      C      0.161015270000     0.261949250000     0.113413245000    -0.01284    
C72      C      0.219179275000     0.204232800000     0.030586885000    -0.053815   
C73      C      0.275134200000     0.233847870000     0.054570410000     0.049825   
C74      C      0.195753100000     0.244595810000     0.085065910000     0.034502   
C75      C      0.240392670000     0.251221200000     0.082902395000    -0.014299   
C76      C      0.186061665000     0.220392435000     0.058758935000     0.045466   
C77      C      0.250071750000     0.275463500000     0.109178655000     0.088258   
C78      C      0.173209770000     0.284897985000     0.140216600000     0.186915   
C79      C      0.262860950000     0.211101175000     0.027658945000     0.064051   
C80      C      0.077217175000     0.273602900000     0.140340000000     0.30522    
C81      C      0.359144450000     0.221517950000     0.028012940000     0.354381   
N82      N      0.484673250000     0.234987960000     0.486270450000    -0.115001   
N83      N      0.452992700000     0.262512265000     0.182558640000    -0.177173   
Cl84     Cl     0.342130350000     0.025421800000     0.107680125000    -0.204507   
Cl85     Cl     0.095455050000     0.470941335000     0.061291400000    -0.205665   
Cl86     Cl     0.138157600000     0.304787450000     0.179671390000    -0.290491   
Cl87     Cl     0.297688850000     0.191773040000     0.487953125000    -0.261202   
O88      O      0.479408325000     0.134407370000     0.466322900000    -0.173386   
O89      O      0.458242450000     0.363099100000     0.202508285000    -0.169502   
O90      O      0.486369150000     0.338655175000     0.472247500000    -0.174898   
O91      O      0.451304350000     0.158841950000     0.196580530000    -0.165632   
O92      O      0.308152150000     0.183732090000     0.128262150000    -0.155603   
O93      O      0.129438400000     0.312626450000     0.040712905000    -0.157225   
O94      O      0.062211930000     0.294792770000     0.066425025000    -0.200027   
O95      O      0.375378650000     0.201565685000     0.102549935000    -0.208487   
O96      O      0.053303275000     0.314448150000     0.137527035000    -0.26254    
O97      O      0.372306700000     0.242176115000     0.004525855000    -0.205905   
O98      O      0.382059065000     0.180431770000     0.030796170000    -0.251845   
O99      O      0.376323550000     0.307653725000     0.091519060000    -0.53209    
O100     O      0.059906970000     0.187998550000     0.076564575000    -0.510893   
O101     O      0.025721985000     0.253275800000     0.090471550000    -0.364957   
O102     O      0.410508500000     0.242376430000     0.077612085000    -0.388519   
O103     O      0.065038465000     0.252709480000     0.164078050000    -0.19048    
F104     F      0.133323610000     0.383770250000     0.053289375000    -0.396391   
F105     F      0.304266950000     0.112588165000     0.115685650000    -0.395755   
Zn0      Zn     0.433768950000     0.282607615000     0.605691230000     1.11326    
Zn1      Zn     0.002239110000     0.212436690000     0.564021245000     1.1319     
H2       H      0.479861915000     0.178913770000     0.913947880000     0.076642   
H3       H      0.457804050000     0.318586470000     0.754881235000     0.075567   
H4       H      0.474894500000     0.303738150000     0.918721950000     0.075311   
H5       H      0.462773900000     0.193763735000     0.750106900000     0.074494   
H6       H      0.426468450000     0.206923650000     0.870944025000     0.056517   
H7       H      0.011197510000     0.290576520000     0.797885050000     0.05104    
H8       H      0.017900170000     0.284753235000     0.862141220000     0.050473   
H9       H      0.419765830000     0.212746950000     0.806687900000     0.053515   
H10      H      0.494725850000     0.155330690000     0.510160985000     0.044751   
H11      H      0.442940000000     0.342169550000     0.658668150000    -0.196744   
H12      H      0.480337650000     0.309685450000     0.517090080000    -0.014587   
H13      H      0.457325900000     0.187813075000     0.651739270000     0.006023   
H14      H      0.003328620000     0.012893080000     0.558615160000     0.018451   
H15      H      0.434262100000     0.483465300000     0.610359860000     0.044903   
H16      H      0.451469650000     0.426656150000     0.575383080000    -0.002526   
H17      H      0.486119630000     0.069707750000     0.593596725000     0.059606   
H18      H      0.445058700000     0.140879750000     0.600346930000     0.019775   
H19      H      0.492531900000     0.355478735000     0.568628075000    -0.128955   
H20      H      0.135636350000     0.194705900000     0.539476385000     0.052452   
H21      H      0.026563720000     0.323352130000     0.656862735000     0.178152   
H22      H      0.408982935000     0.171162750000     0.511669130000     0.195529   
H23      H      0.300477150000     0.301195400000     0.628422250000     0.054821   
H24      H      0.225410610000     0.309577000000     0.657750725000     0.099763   
H25      H      0.210624320000     0.186525180000     0.510044415000     0.071194   
C26      C      0.483491850000     0.201879440000     0.966552650000     0.06042    
C27      C      0.454174130000     0.295620770000     0.702276515000     0.011763   
C28      C      0.482001750000     0.271443935000     0.969051270000     0.056837   
C29      C      0.455664215000     0.226056280000     0.699777885000     0.050892   
C30      C      0.479744700000     0.205193535000     0.929327935000    -0.065478   
C31      C      0.457921775000     0.292306200000     0.739506065000    -0.048      
C32      C      0.477984400000     0.274871825000     0.931864025000    -0.064816   
C33      C      0.459681570000     0.222628370000     0.736965100000    -0.063505   
C34      C      0.476880600000     0.241758240000     0.911564975000     0.053753   
C35      C      0.460785800000     0.255741550000     0.757269050000     0.045519   
C36      C      0.445519550000     0.224999190000     0.855316950000    -0.025381   
C37      C      0.492146880000     0.272500635000     0.813517050000     0.016644   
C38      C      0.496003925000     0.269149570000     0.850493300000     0.013634   
C39      C      0.441662050000     0.228350625000     0.818335770000    -0.026175   
C40      C      0.464912685000     0.252156080000     0.796831965000    -0.005465   
C41      C      0.472753800000     0.245343670000     0.872002000000    -0.006544   
C42      C      0.486354680000     0.161784990000     0.983184900000     0.111776   
C43      C      0.451303700000     0.335718335000     0.685645280000     0.143371   
C44      C      0.482894050000     0.308272480000     0.988491650000     0.103177   
C45      C      0.454771965000     0.189227775000     0.680337460000     0.073362   
C46      C      0.086028455000     0.321152420000     0.555767600000     0.283191   
C47      C      0.351562085000     0.175206125000     0.613207445000     0.291286   
C48      C      0.376176500000     0.131570700000     0.608257955000    -0.137929   
C49      C      0.061414065000     0.364787800000     0.560717070000    -0.137687   
C50      C      0.424897880000     0.119072555000     0.601686590000     0.06327    
C51      C      0.012692570000     0.377285950000     0.567288340000     0.035902   
C52      C      0.448492675000     0.078159630000     0.597466835000    -0.072497   
C53      C      0.489097925000     0.418198885000     0.571508215000    -0.024046   
C54      C      0.423987900000     0.048591850000     0.599224480000     0.032625   
C55      C      0.013602735000     0.447766570000     0.569750495000     0.016764   
C56      C      0.375124215000     0.060832380000     0.605867565000     0.045871   
C57      C      0.062466325000     0.435526135000     0.563107410000     0.050971   
C58      C      0.351479900000     0.101910295000     0.610214060000     0.328368   
C59      C      0.086110650000     0.394448200000     0.558760905000     0.321937   
C60      C      0.449048280000     0.004979850000     0.595290780000     0.022284   
C61      C      0.488542200000     0.491378650000     0.573684180000     0.025308   
C62      C      0.216908815000     0.291743050000     0.637283565000    -0.107026   
C63      C      0.373813270000     0.272135100000     0.583418705000     0.244203   
C64      C      0.062409090000     0.223525950000     0.584647490000     0.268311   
C65      C      0.142854365000     0.213052950000     0.560100480000    -0.023101   
C66      C      0.293294130000     0.282783350000     0.607837625000    -0.050458   
C67      C      0.107981935000     0.230538160000     0.586556555000    -0.013795   
C68      C      0.328228200000     0.265152650000     0.581472235000     0.007614   
C69      C      0.116223415000     0.255188150000     0.613424315000    -0.004967   
C70      C      0.320003850000     0.240420850000     0.554655690000    -0.052988   
C71      C      0.161015270000     0.261949250000     0.613413245000    -0.01284    
C72      C      0.219179275000     0.204232800000     0.530586885000    -0.053815   
C73      C      0.275134200000     0.233847870000     0.554570410000     0.049825   
C74      C      0.195753100000     0.244595810000     0.585065910000     0.034502   
C75      C      0.240392670000     0.251221200000     0.582902395000    -0.014299   
C76      C      0.186061665000     0.220392435000     0.558758935000     0.045466   
C77      C      0.250071750000     0.275463500000     0.609178655000     0.088258   
C78      C      0.173209770000     0.284897985000     0.640216600000     0.186915   
C79      C      0.262860950000     0.211101175000     0.527658945000     0.064051   
C80      C      0.077217175000     0.273602900000     0.640340000000     0.30522    
C81      C      0.359144450000     0.221517950000     0.528012940000     0.354381   
N82      N      0.484673250000     0.234987960000     0.986270450000    -0.115001   
N83      N      0.452992700000     0.262512265000     0.682558640000    -0.177173   
Cl84     Cl     0.342130350000     0.025421800000     0.607680125000    -0.204507   
Cl85     Cl     0.095455050000     0.470941335000     0.561291400000    -0.205665   
Cl86     Cl     0.138157600000     0.304787450000     0.679671390000    -0.290491   
Cl87     Cl     0.297688850000     0.191773040000     0.987953125000    -0.261202   
O88      O      0.479408325000     0.134407370000     0.966322900000    -0.173386   
O89      O      0.458242450000     0.363099100000     0.702508285000    -0.169502   
O90      O      0.486369150000     0.338655175000     0.972247500000    -0.174898   
O91      O      0.451304350000     0.158841950000     0.696580530000    -0.165632   
O92      O      0.308152150000     0.183732090000     0.628262150000    -0.155603   
O93      O      0.129438400000     0.312626450000     0.540712905000    -0.157225   
O94      O      0.062211930000     0.294792770000     0.566425025000    -0.200027   
O95      O      0.375378650000     0.201565685000     0.602549935000    -0.208487   
O96      O      0.053303275000     0.314448150000     0.637527035000    -0.26254    
O97      O      0.372306700000     0.242176115000     0.504525855000    -0.205905   
O98      O      0.382059065000     0.180431770000     0.530796170000    -0.251845   
O99      O      0.376323550000     0.307653725000     0.591519060000    -0.53209    
O100     O      0.059906970000     0.187998550000     0.576564575000    -0.510893   
O101     O      0.025721985000     0.253275800000     0.590471550000    -0.364957   
O102     O      0.410508500000     0.242376430000     0.577612085000    -0.388519   
O103     O      0.065038465000     0.252709480000     0.664078050000    -0.19048    
F104     F      0.133323610000     0.383770250000     0.553289375000    -0.396391   
F105     F      0.304266950000     0.112588165000     0.615685650000    -0.395755   
Zn0      Zn     0.433768950000     0.782607615000     0.105691230000     1.11326    
Zn1      Zn     0.002239110000     0.712436690000     0.064021245000     1.1319     
H2       H      0.479861915000     0.678913770000     0.413947880000     0.076642   
H3       H      0.457804050000     0.818586470000     0.254881235000     0.075567   
H4       H      0.474894500000     0.803738150000     0.418721950000     0.075311   
H5       H      0.462773900000     0.693763735000     0.250106900000     0.074494   
H6       H      0.426468450000     0.706923650000     0.370944025000     0.056517   
H7       H      0.011197510000     0.790576520000     0.297885050000     0.05104    
H8       H      0.017900170000     0.784753235000     0.362141220000     0.050473   
H9       H      0.419765830000     0.712746950000     0.306687900000     0.053515   
H10      H      0.494725850000     0.655330690000     0.010160985000     0.044751   
H11      H      0.442940000000     0.842169550000     0.158668150000    -0.196744   
H12      H      0.480337650000     0.809685450000     0.017090080000    -0.014587   
H13      H      0.457325900000     0.687813075000     0.151739270000     0.006023   
H14      H      0.003328620000     0.512893080000     0.058615160000     0.018451   
H15      H      0.434262100000     0.983465300000     0.110359860000     0.044903   
H16      H      0.451469650000     0.926656150000     0.075383080000    -0.002526   
H17      H      0.486119630000     0.569707750000     0.093596725000     0.059606   
H18      H      0.445058700000     0.640879750000     0.100346930000     0.019775   
H19      H      0.492531900000     0.855478735000     0.068628075000    -0.128955   
H20      H      0.135636350000     0.694705900000     0.039476385000     0.052452   
H21      H      0.026563720000     0.823352130000     0.156862735000     0.178152   
H22      H      0.408982935000     0.671162750000     0.011669130000     0.195529   
H23      H      0.300477150000     0.801195400000     0.128422250000     0.054821   
H24      H      0.225410610000     0.809577000000     0.157750725000     0.099763   
H25      H      0.210624320000     0.686525180000     0.010044415000     0.071194   
C26      C      0.483491850000     0.701879440000     0.466552650000     0.06042    
C27      C      0.454174130000     0.795620770000     0.202276515000     0.011763   
C28      C      0.482001750000     0.771443935000     0.469051270000     0.056837   
C29      C      0.455664215000     0.726056280000     0.199777885000     0.050892   
C30      C      0.479744700000     0.705193535000     0.429327935000    -0.065478   
C31      C      0.457921775000     0.792306200000     0.239506065000    -0.048      
C32      C      0.477984400000     0.774871825000     0.431864025000    -0.064816   
C33      C      0.459681570000     0.722628370000     0.236965100000    -0.063505   
C34      C      0.476880600000     0.741758240000     0.411564975000     0.053753   
C35      C      0.460785800000     0.755741550000     0.257269050000     0.045519   
C36      C      0.445519550000     0.724999190000     0.355316950000    -0.025381   
C37      C      0.492146880000     0.772500635000     0.313517050000     0.016644   
C38      C      0.496003925000     0.769149570000     0.350493300000     0.013634   
C39      C      0.441662050000     0.728350625000     0.318335770000    -0.026175   
C40      C      0.464912685000     0.752156080000     0.296831965000    -0.005465   
C41      C      0.472753800000     0.745343670000     0.372002000000    -0.006544   
C42      C      0.486354680000     0.661784990000     0.483184900000     0.111776   
C43      C      0.451303700000     0.835718335000     0.185645280000     0.143371   
C44      C      0.482894050000     0.808272480000     0.488491650000     0.103177   
C45      C      0.454771965000     0.689227775000     0.180337460000     0.073362   
C46      C      0.086028455000     0.821152420000     0.055767600000     0.283191   
C47      C      0.351562085000     0.675206125000     0.113207445000     0.291286   
C48      C      0.376176500000     0.631570700000     0.108257955000    -0.137929   
C49      C      0.061414065000     0.864787800000     0.060717070000    -0.137687   
C50      C      0.424897880000     0.619072555000     0.101686590000     0.06327    
C51      C      0.012692570000     0.877285950000     0.067288340000     0.035902   
C52      C      0.448492675000     0.578159630000     0.097466835000    -0.072497   
C53      C      0.489097925000     0.918198885000     0.071508215000    -0.024046   
C54      C      0.423987900000     0.548591850000     0.099224480000     0.032625   
C55      C      0.013602735000     0.947766570000     0.069750495000     0.016764   
C56      C      0.375124215000     0.560832380000     0.105867565000     0.045871   
C57      C      0.062466325000     0.935526135000     0.063107410000     0.050971   
C58      C      0.351479900000     0.601910295000     0.110214060000     0.328368   
C59      C      0.086110650000     0.894448200000     0.058760905000     0.321937   
C60      C      0.449048280000     0.504979850000     0.095290780000     0.022284   
C61      C      0.488542200000     0.991378650000     0.073684180000     0.025308   
C62      C      0.216908815000     0.791743050000     0.137283565000    -0.107026   
C63      C      0.373813270000     0.772135100000     0.083418705000     0.244203   
C64      C      0.062409090000     0.723525950000     0.084647490000     0.268311   
C65      C      0.142854365000     0.713052950000     0.060100480000    -0.023101   
C66      C      0.293294130000     0.782783350000     0.107837625000    -0.050458   
C67      C      0.107981935000     0.730538160000     0.086556555000    -0.013795   
C68      C      0.328228200000     0.765152650000     0.081472235000     0.007614   
C69      C      0.116223415000     0.755188150000     0.113424315000    -0.004967   
C70      C      0.320003850000     0.740420850000     0.054655690000    -0.052988   
C71      C      0.161015270000     0.761949250000     0.113413245000    -0.01284    
C72      C      0.219179275000     0.704232800000     0.030586885000    -0.053815   
C73      C      0.275134200000     0.733847870000     0.054570410000     0.049825   
C74      C      0.195753100000     0.744595810000     0.085065910000     0.034502   
C75      C      0.240392670000     0.751221200000     0.082902395000    -0.014299   
C76      C      0.186061665000     0.720392435000     0.058758935000     0.045466   
C77      C      0.250071750000     0.775463500000     0.109178655000     0.088258   
C78      C      0.173209770000     0.784897985000     0.140216600000     0.186915   
C79      C      0.262860950000     0.711101175000     0.027658945000     0.064051   
C80      C      0.077217175000     0.773602900000     0.140340000000     0.30522    
C81      C      0.359144450000     0.721517950000     0.028012940000     0.354381   
N82      N      0.484673250000     0.734987960000     0.486270450000    -0.115001   
N83      N      0.452992700000     0.762512265000     0.182558640000    -0.177173   
Cl84     Cl     0.342130350000     0.525421800000     0.107680125000    -0.204507   
Cl85     Cl     0.095455050000     0.970941335000     0.061291400000    -0.205665   
Cl86     Cl     0.138157600000     0.804787450000     0.179671390000    -0.290491   
Cl87     Cl     0.297688850000     0.691773040000     0.487953125000    -0.261202   
O88      O      0.479408325000     0.634407370000     0.466322900000    -0.173386   
O89      O      0.458242450000     0.863099100000     0.202508285000    -0.169502   
O90      O      0.486369150000     0.838655175000     0.472247500000    -0.174898   
O91      O      0.451304350000     0.658841950000     0.196580530000    -0.165632   
O92      O      0.308152150000     0.683732090000     0.128262150000    -0.155603   
O93      O      0.129438400000     0.812626450000     0.040712905000    -0.157225   
O94      O      0.062211930000     0.794792770000     0.066425025000    -0.200027   
O95      O      0.375378650000     0.701565685000     0.102549935000    -0.208487   
O96      O      0.053303275000     0.814448150000     0.137527035000    -0.26254    
O97      O      0.372306700000     0.742176115000     0.004525855000    -0.205905   
O98      O      0.382059065000     0.680431770000     0.030796170000    -0.251845   
O99      O      0.376323550000     0.807653725000     0.091519060000    -0.53209    
O100     O      0.059906970000     0.687998550000     0.076564575000    -0.510893   
O101     O      0.025721985000     0.753275800000     0.090471550000    -0.364957   
O102     O      0.410508500000     0.742376430000     0.077612085000    -0.388519   
O103     O      0.065038465000     0.752709480000     0.164078050000    -0.19048    
F104     F      0.133323610000     0.883770250000     0.053289375000    -0.396391   
F105     F      0.304266950000     0.612588165000     0.115685650000    -0.395755   
Zn0      Zn     0.433768950000     0.782607615000     0.605691230000     1.11326    
Zn1      Zn     0.002239110000     0.712436690000     0.564021245000     1.1319     
H2       H      0.479861915000     0.678913770000     0.913947880000     0.076642   
H3       H      0.457804050000     0.818586470000     0.754881235000     0.075567   
H4       H      0.474894500000     0.803738150000     0.918721950000     0.075311   
H5       H      0.462773900000     0.693763735000     0.750106900000     0.074494   
H6       H      0.426468450000     0.706923650000     0.870944025000     0.056517   
H7       H      0.011197510000     0.790576520000     0.797885050000     0.05104    
H8       H      0.017900170000     0.784753235000     0.862141220000     0.050473   
H9       H      0.419765830000     0.712746950000     0.806687900000     0.053515   
H10      H      0.494725850000     0.655330690000     0.510160985000     0.044751   
H11      H      0.442940000000     0.842169550000     0.658668150000    -0.196744   
H12      H      0.480337650000     0.809685450000     0.517090080000    -0.014587   
H13      H      0.457325900000     0.687813075000     0.651739270000     0.006023   
H14      H      0.003328620000     0.512893080000     0.558615160000     0.018451   
H15      H      0.434262100000     0.983465300000     0.610359860000     0.044903   
H16      H      0.451469650000     0.926656150000     0.575383080000    -0.002526   
H17      H      0.486119630000     0.569707750000     0.593596725000     0.059606   
H18      H      0.445058700000     0.640879750000     0.600346930000     0.019775   
H19      H      0.492531900000     0.855478735000     0.568628075000    -0.128955   
H20      H      0.135636350000     0.694705900000     0.539476385000     0.052452   
H21      H      0.026563720000     0.823352130000     0.656862735000     0.178152   
H22      H      0.408982935000     0.671162750000     0.511669130000     0.195529   
H23      H      0.300477150000     0.801195400000     0.628422250000     0.054821   
H24      H      0.225410610000     0.809577000000     0.657750725000     0.099763   
H25      H      0.210624320000     0.686525180000     0.510044415000     0.071194   
C26      C      0.483491850000     0.701879440000     0.966552650000     0.06042    
C27      C      0.454174130000     0.795620770000     0.702276515000     0.011763   
C28      C      0.482001750000     0.771443935000     0.969051270000     0.056837   
C29      C      0.455664215000     0.726056280000     0.699777885000     0.050892   
C30      C      0.479744700000     0.705193535000     0.929327935000    -0.065478   
C31      C      0.457921775000     0.792306200000     0.739506065000    -0.048      
C32      C      0.477984400000     0.774871825000     0.931864025000    -0.064816   
C33      C      0.459681570000     0.722628370000     0.736965100000    -0.063505   
C34      C      0.476880600000     0.741758240000     0.911564975000     0.053753   
C35      C      0.460785800000     0.755741550000     0.757269050000     0.045519   
C36      C      0.445519550000     0.724999190000     0.855316950000    -0.025381   
C37      C      0.492146880000     0.772500635000     0.813517050000     0.016644   
C38      C      0.496003925000     0.769149570000     0.850493300000     0.013634   
C39      C      0.441662050000     0.728350625000     0.818335770000    -0.026175   
C40      C      0.464912685000     0.752156080000     0.796831965000    -0.005465   
C41      C      0.472753800000     0.745343670000     0.872002000000    -0.006544   
C42      C      0.486354680000     0.661784990000     0.983184900000     0.111776   
C43      C      0.451303700000     0.835718335000     0.685645280000     0.143371   
C44      C      0.482894050000     0.808272480000     0.988491650000     0.103177   
C45      C      0.454771965000     0.689227775000     0.680337460000     0.073362   
C46      C      0.086028455000     0.821152420000     0.555767600000     0.283191   
C47      C      0.351562085000     0.675206125000     0.613207445000     0.291286   
C48      C      0.376176500000     0.631570700000     0.608257955000    -0.137929   
C49      C      0.061414065000     0.864787800000     0.560717070000    -0.137687   
C50      C      0.424897880000     0.619072555000     0.601686590000     0.06327    
C51      C      0.012692570000     0.877285950000     0.567288340000     0.035902   
C52      C      0.448492675000     0.578159630000     0.597466835000    -0.072497   
C53      C      0.489097925000     0.918198885000     0.571508215000    -0.024046   
C54      C      0.423987900000     0.548591850000     0.599224480000     0.032625   
C55      C      0.013602735000     0.947766570000     0.569750495000     0.016764   
C56      C      0.375124215000     0.560832380000     0.605867565000     0.045871   
C57      C      0.062466325000     0.935526135000     0.563107410000     0.050971   
C58      C      0.351479900000     0.601910295000     0.610214060000     0.328368   
C59      C      0.086110650000     0.894448200000     0.558760905000     0.321937   
C60      C      0.449048280000     0.504979850000     0.595290780000     0.022284   
C61      C      0.488542200000     0.991378650000     0.573684180000     0.025308   
C62      C      0.216908815000     0.791743050000     0.637283565000    -0.107026   
C63      C      0.373813270000     0.772135100000     0.583418705000     0.244203   
C64      C      0.062409090000     0.723525950000     0.584647490000     0.268311   
C65      C      0.142854365000     0.713052950000     0.560100480000    -0.023101   
C66      C      0.293294130000     0.782783350000     0.607837625000    -0.050458   
C67      C      0.107981935000     0.730538160000     0.586556555000    -0.013795   
C68      C      0.328228200000     0.765152650000     0.581472235000     0.007614   
C69      C      0.116223415000     0.755188150000     0.613424315000    -0.004967   
C70      C      0.320003850000     0.740420850000     0.554655690000    -0.052988   
C71      C      0.161015270000     0.761949250000     0.613413245000    -0.01284    
C72      C      0.219179275000     0.704232800000     0.530586885000    -0.053815   
C73      C      0.275134200000     0.733847870000     0.554570410000     0.049825   
C74      C      0.195753100000     0.744595810000     0.585065910000     0.034502   
C75      C      0.240392670000     0.751221200000     0.582902395000    -0.014299   
C76      C      0.186061665000     0.720392435000     0.558758935000     0.045466   
C77      C      0.250071750000     0.775463500000     0.609178655000     0.088258   
C78      C      0.173209770000     0.784897985000     0.640216600000     0.186915   
C79      C      0.262860950000     0.711101175000     0.527658945000     0.064051   
C80      C      0.077217175000     0.773602900000     0.640340000000     0.30522    
C81      C      0.359144450000     0.721517950000     0.528012940000     0.354381   
N82      N      0.484673250000     0.734987960000     0.986270450000    -0.115001   
N83      N      0.452992700000     0.762512265000     0.682558640000    -0.177173   
Cl84     Cl     0.342130350000     0.525421800000     0.607680125000    -0.204507   
Cl85     Cl     0.095455050000     0.970941335000     0.561291400000    -0.205665   
Cl86     Cl     0.138157600000     0.804787450000     0.679671390000    -0.290491   
Cl87     Cl     0.297688850000     0.691773040000     0.987953125000    -0.261202   
O88      O      0.479408325000     0.634407370000     0.966322900000    -0.173386   
O89      O      0.458242450000     0.863099100000     0.702508285000    -0.169502   
O90      O      0.486369150000     0.838655175000     0.972247500000    -0.174898   
O91      O      0.451304350000     0.658841950000     0.696580530000    -0.165632   
O92      O      0.308152150000     0.683732090000     0.628262150000    -0.155603   
O93      O      0.129438400000     0.812626450000     0.540712905000    -0.157225   
O94      O      0.062211930000     0.794792770000     0.566425025000    -0.200027   
O95      O      0.375378650000     0.701565685000     0.602549935000    -0.208487   
O96      O      0.053303275000     0.814448150000     0.637527035000    -0.26254    
O97      O      0.372306700000     0.742176115000     0.504525855000    -0.205905   
O98      O      0.382059065000     0.680431770000     0.530796170000    -0.251845   
O99      O      0.376323550000     0.807653725000     0.591519060000    -0.53209    
O100     O      0.059906970000     0.687998550000     0.576564575000    -0.510893   
O101     O      0.025721985000     0.753275800000     0.590471550000    -0.364957   
O102     O      0.410508500000     0.742376430000     0.577612085000    -0.388519   
O103     O      0.065038465000     0.752709480000     0.664078050000    -0.19048    
F104     F      0.133323610000     0.883770250000     0.553289375000    -0.396391   
F105     F      0.304266950000     0.612588165000     0.615685650000    -0.395755   
Zn0      Zn     0.933768950000     0.282607615000     0.105691230000     1.11326    
Zn1      Zn     0.502239110000     0.212436690000     0.064021245000     1.1319     
H2       H      0.979861915000     0.178913770000     0.413947880000     0.076642   
H3       H      0.957804050000     0.318586470000     0.254881235000     0.075567   
H4       H      0.974894500000     0.303738150000     0.418721950000     0.075311   
H5       H      0.962773900000     0.193763735000     0.250106900000     0.074494   
H6       H      0.926468450000     0.206923650000     0.370944025000     0.056517   
H7       H      0.511197510000     0.290576520000     0.297885050000     0.05104    
H8       H      0.517900170000     0.284753235000     0.362141220000     0.050473   
H9       H      0.919765830000     0.212746950000     0.306687900000     0.053515   
H10      H      0.994725850000     0.155330690000     0.010160985000     0.044751   
H11      H      0.942940000000     0.342169550000     0.158668150000    -0.196744   
H12      H      0.980337650000     0.309685450000     0.017090080000    -0.014587   
H13      H      0.957325900000     0.187813075000     0.151739270000     0.006023   
H14      H      0.503328620000     0.012893080000     0.058615160000     0.018451   
H15      H      0.934262100000     0.483465300000     0.110359860000     0.044903   
H16      H      0.951469650000     0.426656150000     0.075383080000    -0.002526   
H17      H      0.986119630000     0.069707750000     0.093596725000     0.059606   
H18      H      0.945058700000     0.140879750000     0.100346930000     0.019775   
H19      H      0.992531900000     0.355478735000     0.068628075000    -0.128955   
H20      H      0.635636350000     0.194705900000     0.039476385000     0.052452   
H21      H      0.526563720000     0.323352130000     0.156862735000     0.178152   
H22      H      0.908982935000     0.171162750000     0.011669130000     0.195529   
H23      H      0.800477150000     0.301195400000     0.128422250000     0.054821   
H24      H      0.725410610000     0.309577000000     0.157750725000     0.099763   
H25      H      0.710624320000     0.186525180000     0.010044415000     0.071194   
C26      C      0.983491850000     0.201879440000     0.466552650000     0.06042    
C27      C      0.954174130000     0.295620770000     0.202276515000     0.011763   
C28      C      0.982001750000     0.271443935000     0.469051270000     0.056837   
C29      C      0.955664215000     0.226056280000     0.199777885000     0.050892   
C30      C      0.979744700000     0.205193535000     0.429327935000    -0.065478   
C31      C      0.957921775000     0.292306200000     0.239506065000    -0.048      
C32      C      0.977984400000     0.274871825000     0.431864025000    -0.064816   
C33      C      0.959681570000     0.222628370000     0.236965100000    -0.063505   
C34      C      0.976880600000     0.241758240000     0.411564975000     0.053753   
C35      C      0.960785800000     0.255741550000     0.257269050000     0.045519   
C36      C      0.945519550000     0.224999190000     0.355316950000    -0.025381   
C37      C      0.992146880000     0.272500635000     0.313517050000     0.016644   
C38      C      0.996003925000     0.269149570000     0.350493300000     0.013634   
C39      C      0.941662050000     0.228350625000     0.318335770000    -0.026175   
C40      C      0.964912685000     0.252156080000     0.296831965000    -0.005465   
C41      C      0.972753800000     0.245343670000     0.372002000000    -0.006544   
C42      C      0.986354680000     0.161784990000     0.483184900000     0.111776   
C43      C      0.951303700000     0.335718335000     0.185645280000     0.143371   
C44      C      0.982894050000     0.308272480000     0.488491650000     0.103177   
C45      C      0.954771965000     0.189227775000     0.180337460000     0.073362   
C46      C      0.586028455000     0.321152420000     0.055767600000     0.283191   
C47      C      0.851562085000     0.175206125000     0.113207445000     0.291286   
C48      C      0.876176500000     0.131570700000     0.108257955000    -0.137929   
C49      C      0.561414065000     0.364787800000     0.060717070000    -0.137687   
C50      C      0.924897880000     0.119072555000     0.101686590000     0.06327    
C51      C      0.512692570000     0.377285950000     0.067288340000     0.035902   
C52      C      0.948492675000     0.078159630000     0.097466835000    -0.072497   
C53      C      0.989097925000     0.418198885000     0.071508215000    -0.024046   
C54      C      0.923987900000     0.048591850000     0.099224480000     0.032625   
C55      C      0.513602735000     0.447766570000     0.069750495000     0.016764   
C56      C      0.875124215000     0.060832380000     0.105867565000     0.045871   
C57      C      0.562466325000     0.435526135000     0.063107410000     0.050971   
C58      C      0.851479900000     0.101910295000     0.110214060000     0.328368   
C59      C      0.586110650000     0.394448200000     0.058760905000     0.321937   
C60      C      0.949048280000     0.004979850000     0.095290780000     0.022284   
C61      C      0.988542200000     0.491378650000     0.073684180000     0.025308   
C62      C      0.716908815000     0.291743050000     0.137283565000    -0.107026   
C63      C      0.873813270000     0.272135100000     0.083418705000     0.244203   
C64      C      0.562409090000     0.223525950000     0.084647490000     0.268311   
C65      C      0.642854365000     0.213052950000     0.060100480000    -0.023101   
C66      C      0.793294130000     0.282783350000     0.107837625000    -0.050458   
C67      C      0.607981935000     0.230538160000     0.086556555000    -0.013795   
C68      C      0.828228200000     0.265152650000     0.081472235000     0.007614   
C69      C      0.616223415000     0.255188150000     0.113424315000    -0.004967   
C70      C      0.820003850000     0.240420850000     0.054655690000    -0.052988   
C71      C      0.661015270000     0.261949250000     0.113413245000    -0.01284    
C72      C      0.719179275000     0.204232800000     0.030586885000    -0.053815   
C73      C      0.775134200000     0.233847870000     0.054570410000     0.049825   
C74      C      0.695753100000     0.244595810000     0.085065910000     0.034502   
C75      C      0.740392670000     0.251221200000     0.082902395000    -0.014299   
C76      C      0.686061665000     0.220392435000     0.058758935000     0.045466   
C77      C      0.750071750000     0.275463500000     0.109178655000     0.088258   
C78      C      0.673209770000     0.284897985000     0.140216600000     0.186915   
C79      C      0.762860950000     0.211101175000     0.027658945000     0.064051   
C80      C      0.577217175000     0.273602900000     0.140340000000     0.30522    
C81      C      0.859144450000     0.221517950000     0.028012940000     0.354381   
N82      N      0.984673250000     0.234987960000     0.486270450000    -0.115001   
N83      N      0.952992700000     0.262512265000     0.182558640000    -0.177173   
Cl84     Cl     0.842130350000     0.025421800000     0.107680125000    -0.204507   
Cl85     Cl     0.595455050000     0.470941335000     0.061291400000    -0.205665   
Cl86     Cl     0.638157600000     0.304787450000     0.179671390000    -0.290491   
Cl87     Cl     0.797688850000     0.191773040000     0.487953125000    -0.261202   
O88      O      0.979408325000     0.134407370000     0.466322900000    -0.173386   
O89      O      0.958242450000     0.363099100000     0.202508285000    -0.169502   
O90      O      0.986369150000     0.338655175000     0.472247500000    -0.174898   
O91      O      0.951304350000     0.158841950000     0.196580530000    -0.165632   
O92      O      0.808152150000     0.183732090000     0.128262150000    -0.155603   
O93      O      0.629438400000     0.312626450000     0.040712905000    -0.157225   
O94      O      0.562211930000     0.294792770000     0.066425025000    -0.200027   
O95      O      0.875378650000     0.201565685000     0.102549935000    -0.208487   
O96      O      0.553303275000     0.314448150000     0.137527035000    -0.26254    
O97      O      0.872306700000     0.242176115000     0.004525855000    -0.205905   
O98      O      0.882059065000     0.180431770000     0.030796170000    -0.251845   
O99      O      0.876323550000     0.307653725000     0.091519060000    -0.53209    
O100     O      0.559906970000     0.187998550000     0.076564575000    -0.510893   
O101     O      0.525721985000     0.253275800000     0.090471550000    -0.364957   
O102     O      0.910508500000     0.242376430000     0.077612085000    -0.388519   
O103     O      0.565038465000     0.252709480000     0.164078050000    -0.19048    
F104     F      0.633323610000     0.383770250000     0.053289375000    -0.396391   
F105     F      0.804266950000     0.112588165000     0.115685650000    -0.395755   
Zn0      Zn     0.933768950000     0.282607615000     0.605691230000     1.11326    
Zn1      Zn     0.502239110000     0.212436690000     0.564021245000     1.1319     
H2       H      0.979861915000     0.178913770000     0.913947880000     0.076642   
H3       H      0.957804050000     0.318586470000     0.754881235000     0.075567   
H4       H      0.974894500000     0.303738150000     0.918721950000     0.075311   
H5       H      0.962773900000     0.193763735000     0.750106900000     0.074494   
H6       H      0.926468450000     0.206923650000     0.870944025000     0.056517   
H7       H      0.511197510000     0.290576520000     0.797885050000     0.05104    
H8       H      0.517900170000     0.284753235000     0.862141220000     0.050473   
H9       H      0.919765830000     0.212746950000     0.806687900000     0.053515   
H10      H      0.994725850000     0.155330690000     0.510160985000     0.044751   
H11      H      0.942940000000     0.342169550000     0.658668150000    -0.196744   
H12      H      0.980337650000     0.309685450000     0.517090080000    -0.014587   
H13      H      0.957325900000     0.187813075000     0.651739270000     0.006023   
H14      H      0.503328620000     0.012893080000     0.558615160000     0.018451   
H15      H      0.934262100000     0.483465300000     0.610359860000     0.044903   
H16      H      0.951469650000     0.426656150000     0.575383080000    -0.002526   
H17      H      0.986119630000     0.069707750000     0.593596725000     0.059606   
H18      H      0.945058700000     0.140879750000     0.600346930000     0.019775   
H19      H      0.992531900000     0.355478735000     0.568628075000    -0.128955   
H20      H      0.635636350000     0.194705900000     0.539476385000     0.052452   
H21      H      0.526563720000     0.323352130000     0.656862735000     0.178152   
H22      H      0.908982935000     0.171162750000     0.511669130000     0.195529   
H23      H      0.800477150000     0.301195400000     0.628422250000     0.054821   
H24      H      0.725410610000     0.309577000000     0.657750725000     0.099763   
H25      H      0.710624320000     0.186525180000     0.510044415000     0.071194   
C26      C      0.983491850000     0.201879440000     0.966552650000     0.06042    
C27      C      0.954174130000     0.295620770000     0.702276515000     0.011763   
C28      C      0.982001750000     0.271443935000     0.969051270000     0.056837   
C29      C      0.955664215000     0.226056280000     0.699777885000     0.050892   
C30      C      0.979744700000     0.205193535000     0.929327935000    -0.065478   
C31      C      0.957921775000     0.292306200000     0.739506065000    -0.048      
C32      C      0.977984400000     0.274871825000     0.931864025000    -0.064816   
C33      C      0.959681570000     0.222628370000     0.736965100000    -0.063505   
C34      C      0.976880600000     0.241758240000     0.911564975000     0.053753   
C35      C      0.960785800000     0.255741550000     0.757269050000     0.045519   
C36      C      0.945519550000     0.224999190000     0.855316950000    -0.025381   
C37      C      0.992146880000     0.272500635000     0.813517050000     0.016644   
C38      C      0.996003925000     0.269149570000     0.850493300000     0.013634   
C39      C      0.941662050000     0.228350625000     0.818335770000    -0.026175   
C40      C      0.964912685000     0.252156080000     0.796831965000    -0.005465   
C41      C      0.972753800000     0.245343670000     0.872002000000    -0.006544   
C42      C      0.986354680000     0.161784990000     0.983184900000     0.111776   
C43      C      0.951303700000     0.335718335000     0.685645280000     0.143371   
C44      C      0.982894050000     0.308272480000     0.988491650000     0.103177   
C45      C      0.954771965000     0.189227775000     0.680337460000     0.073362   
C46      C      0.586028455000     0.321152420000     0.555767600000     0.283191   
C47      C      0.851562085000     0.175206125000     0.613207445000     0.291286   
C48      C      0.876176500000     0.131570700000     0.608257955000    -0.137929   
C49      C      0.561414065000     0.364787800000     0.560717070000    -0.137687   
C50      C      0.924897880000     0.119072555000     0.601686590000     0.06327    
C51      C      0.512692570000     0.377285950000     0.567288340000     0.035902   
C52      C      0.948492675000     0.078159630000     0.597466835000    -0.072497   
C53      C      0.989097925000     0.418198885000     0.571508215000    -0.024046   
C54      C      0.923987900000     0.048591850000     0.599224480000     0.032625   
C55      C      0.513602735000     0.447766570000     0.569750495000     0.016764   
C56      C      0.875124215000     0.060832380000     0.605867565000     0.045871   
C57      C      0.562466325000     0.435526135000     0.563107410000     0.050971   
C58      C      0.851479900000     0.101910295000     0.610214060000     0.328368   
C59      C      0.586110650000     0.394448200000     0.558760905000     0.321937   
C60      C      0.949048280000     0.004979850000     0.595290780000     0.022284   
C61      C      0.988542200000     0.491378650000     0.573684180000     0.025308   
C62      C      0.716908815000     0.291743050000     0.637283565000    -0.107026   
C63      C      0.873813270000     0.272135100000     0.583418705000     0.244203   
C64      C      0.562409090000     0.223525950000     0.584647490000     0.268311   
C65      C      0.642854365000     0.213052950000     0.560100480000    -0.023101   
C66      C      0.793294130000     0.282783350000     0.607837625000    -0.050458   
C67      C      0.607981935000     0.230538160000     0.586556555000    -0.013795   
C68      C      0.828228200000     0.265152650000     0.581472235000     0.007614   
C69      C      0.616223415000     0.255188150000     0.613424315000    -0.004967   
C70      C      0.820003850000     0.240420850000     0.554655690000    -0.052988   
C71      C      0.661015270000     0.261949250000     0.613413245000    -0.01284    
C72      C      0.719179275000     0.204232800000     0.530586885000    -0.053815   
C73      C      0.775134200000     0.233847870000     0.554570410000     0.049825   
C74      C      0.695753100000     0.244595810000     0.585065910000     0.034502   
C75      C      0.740392670000     0.251221200000     0.582902395000    -0.014299   
C76      C      0.686061665000     0.220392435000     0.558758935000     0.045466   
C77      C      0.750071750000     0.275463500000     0.609178655000     0.088258   
C78      C      0.673209770000     0.284897985000     0.640216600000     0.186915   
C79      C      0.762860950000     0.211101175000     0.527658945000     0.064051   
C80      C      0.577217175000     0.273602900000     0.640340000000     0.30522    
C81      C      0.859144450000     0.221517950000     0.528012940000     0.354381   
N82      N      0.984673250000     0.234987960000     0.986270450000    -0.115001   
N83      N      0.952992700000     0.262512265000     0.682558640000    -0.177173   
Cl84     Cl     0.842130350000     0.025421800000     0.607680125000    -0.204507   
Cl85     Cl     0.595455050000     0.470941335000     0.561291400000    -0.205665   
Cl86     Cl     0.638157600000     0.304787450000     0.679671390000    -0.290491   
Cl87     Cl     0.797688850000     0.191773040000     0.987953125000    -0.261202   
O88      O      0.979408325000     0.134407370000     0.966322900000    -0.173386   
O89      O      0.958242450000     0.363099100000     0.702508285000    -0.169502   
O90      O      0.986369150000     0.338655175000     0.972247500000    -0.174898   
O91      O      0.951304350000     0.158841950000     0.696580530000    -0.165632   
O92      O      0.808152150000     0.183732090000     0.628262150000    -0.155603   
O93      O      0.629438400000     0.312626450000     0.540712905000    -0.157225   
O94      O      0.562211930000     0.294792770000     0.566425025000    -0.200027   
O95      O      0.875378650000     0.201565685000     0.602549935000    -0.208487   
O96      O      0.553303275000     0.314448150000     0.637527035000    -0.26254    
O97      O      0.872306700000     0.242176115000     0.504525855000    -0.205905   
O98      O      0.882059065000     0.180431770000     0.530796170000    -0.251845   
O99      O      0.876323550000     0.307653725000     0.591519060000    -0.53209    
O100     O      0.559906970000     0.187998550000     0.576564575000    -0.510893   
O101     O      0.525721985000     0.253275800000     0.590471550000    -0.364957   
O102     O      0.910508500000     0.242376430000     0.577612085000    -0.388519   
O103     O      0.565038465000     0.252709480000     0.664078050000    -0.19048    
F104     F      0.633323610000     0.383770250000     0.553289375000    -0.396391   
F105     F      0.804266950000     0.112588165000     0.615685650000    -0.395755   
Zn0      Zn     0.933768950000     0.782607615000     0.105691230000     1.11326    
Zn1      Zn     0.502239110000     0.712436690000     0.064021245000     1.1319     
H2       H      0.979861915000     0.678913770000     0.413947880000     0.076642   
H3       H      0.957804050000     0.818586470000     0.254881235000     0.075567   
H4       H      0.974894500000     0.803738150000     0.418721950000     0.075311   
H5       H      0.962773900000     0.693763735000     0.250106900000     0.074494   
H6       H      0.926468450000     0.706923650000     0.370944025000     0.056517   
H7       H      0.511197510000     0.790576520000     0.297885050000     0.05104    
H8       H      0.517900170000     0.784753235000     0.362141220000     0.050473   
H9       H      0.919765830000     0.712746950000     0.306687900000     0.053515   
H10      H      0.994725850000     0.655330690000     0.010160985000     0.044751   
H11      H      0.942940000000     0.842169550000     0.158668150000    -0.196744   
H12      H      0.980337650000     0.809685450000     0.017090080000    -0.014587   
H13      H      0.957325900000     0.687813075000     0.151739270000     0.006023   
H14      H      0.503328620000     0.512893080000     0.058615160000     0.018451   
H15      H      0.934262100000     0.983465300000     0.110359860000     0.044903   
H16      H      0.951469650000     0.926656150000     0.075383080000    -0.002526   
H17      H      0.986119630000     0.569707750000     0.093596725000     0.059606   
H18      H      0.945058700000     0.640879750000     0.100346930000     0.019775   
H19      H      0.992531900000     0.855478735000     0.068628075000    -0.128955   
H20      H      0.635636350000     0.694705900000     0.039476385000     0.052452   
H21      H      0.526563720000     0.823352130000     0.156862735000     0.178152   
H22      H      0.908982935000     0.671162750000     0.011669130000     0.195529   
H23      H      0.800477150000     0.801195400000     0.128422250000     0.054821   
H24      H      0.725410610000     0.809577000000     0.157750725000     0.099763   
H25      H      0.710624320000     0.686525180000     0.010044415000     0.071194   
C26      C      0.983491850000     0.701879440000     0.466552650000     0.06042    
C27      C      0.954174130000     0.795620770000     0.202276515000     0.011763   
C28      C      0.982001750000     0.771443935000     0.469051270000     0.056837   
C29      C      0.955664215000     0.726056280000     0.199777885000     0.050892   
C30      C      0.979744700000     0.705193535000     0.429327935000    -0.065478   
C31      C      0.957921775000     0.792306200000     0.239506065000    -0.048      
C32      C      0.977984400000     0.774871825000     0.431864025000    -0.064816   
C33      C      0.959681570000     0.722628370000     0.236965100000    -0.063505   
C34      C      0.976880600000     0.741758240000     0.411564975000     0.053753   
C35      C      0.960785800000     0.755741550000     0.257269050000     0.045519   
C36      C      0.945519550000     0.724999190000     0.355316950000    -0.025381   
C37      C      0.992146880000     0.772500635000     0.313517050000     0.016644   
C38      C      0.996003925000     0.769149570000     0.350493300000     0.013634   
C39      C      0.941662050000     0.728350625000     0.318335770000    -0.026175   
C40      C      0.964912685000     0.752156080000     0.296831965000    -0.005465   
C41      C      0.972753800000     0.745343670000     0.372002000000    -0.006544   
C42      C      0.986354680000     0.661784990000     0.483184900000     0.111776   
C43      C      0.951303700000     0.835718335000     0.185645280000     0.143371   
C44      C      0.982894050000     0.808272480000     0.488491650000     0.103177   
C45      C      0.954771965000     0.689227775000     0.180337460000     0.073362   
C46      C      0.586028455000     0.821152420000     0.055767600000     0.283191   
C47      C      0.851562085000     0.675206125000     0.113207445000     0.291286   
C48      C      0.876176500000     0.631570700000     0.108257955000    -0.137929   
C49      C      0.561414065000     0.864787800000     0.060717070000    -0.137687   
C50      C      0.924897880000     0.619072555000     0.101686590000     0.06327    
C51      C      0.512692570000     0.877285950000     0.067288340000     0.035902   
C52      C      0.948492675000     0.578159630000     0.097466835000    -0.072497   
C53      C      0.989097925000     0.918198885000     0.071508215000    -0.024046   
C54      C      0.923987900000     0.548591850000     0.099224480000     0.032625   
C55      C      0.513602735000     0.947766570000     0.069750495000     0.016764   
C56      C      0.875124215000     0.560832380000     0.105867565000     0.045871   
C57      C      0.562466325000     0.935526135000     0.063107410000     0.050971   
C58      C      0.851479900000     0.601910295000     0.110214060000     0.328368   
C59      C      0.586110650000     0.894448200000     0.058760905000     0.321937   
C60      C      0.949048280000     0.504979850000     0.095290780000     0.022284   
C61      C      0.988542200000     0.991378650000     0.073684180000     0.025308   
C62      C      0.716908815000     0.791743050000     0.137283565000    -0.107026   
C63      C      0.873813270000     0.772135100000     0.083418705000     0.244203   
C64      C      0.562409090000     0.723525950000     0.084647490000     0.268311   
C65      C      0.642854365000     0.713052950000     0.060100480000    -0.023101   
C66      C      0.793294130000     0.782783350000     0.107837625000    -0.050458   
C67      C      0.607981935000     0.730538160000     0.086556555000    -0.013795   
C68      C      0.828228200000     0.765152650000     0.081472235000     0.007614   
C69      C      0.616223415000     0.755188150000     0.113424315000    -0.004967   
C70      C      0.820003850000     0.740420850000     0.054655690000    -0.052988   
C71      C      0.661015270000     0.761949250000     0.113413245000    -0.01284    
C72      C      0.719179275000     0.704232800000     0.030586885000    -0.053815   
C73      C      0.775134200000     0.733847870000     0.054570410000     0.049825   
C74      C      0.695753100000     0.744595810000     0.085065910000     0.034502   
C75      C      0.740392670000     0.751221200000     0.082902395000    -0.014299   
C76      C      0.686061665000     0.720392435000     0.058758935000     0.045466   
C77      C      0.750071750000     0.775463500000     0.109178655000     0.088258   
C78      C      0.673209770000     0.784897985000     0.140216600000     0.186915   
C79      C      0.762860950000     0.711101175000     0.027658945000     0.064051   
C80      C      0.577217175000     0.773602900000     0.140340000000     0.30522    
C81      C      0.859144450000     0.721517950000     0.028012940000     0.354381   
N82      N      0.984673250000     0.734987960000     0.486270450000    -0.115001   
N83      N      0.952992700000     0.762512265000     0.182558640000    -0.177173   
Cl84     Cl     0.842130350000     0.525421800000     0.107680125000    -0.204507   
Cl85     Cl     0.595455050000     0.970941335000     0.061291400000    -0.205665   
Cl86     Cl     0.638157600000     0.804787450000     0.179671390000    -0.290491   
Cl87     Cl     0.797688850000     0.691773040000     0.487953125000    -0.261202   
O88      O      0.979408325000     0.634407370000     0.466322900000    -0.173386   
O89      O      0.958242450000     0.863099100000     0.202508285000    -0.169502   
O90      O      0.986369150000     0.838655175000     0.472247500000    -0.174898   
O91      O      0.951304350000     0.658841950000     0.196580530000    -0.165632   
O92      O      0.808152150000     0.683732090000     0.128262150000    -0.155603   
O93      O      0.629438400000     0.812626450000     0.040712905000    -0.157225   
O94      O      0.562211930000     0.794792770000     0.066425025000    -0.200027   
O95      O      0.875378650000     0.701565685000     0.102549935000    -0.208487   
O96      O      0.553303275000     0.814448150000     0.137527035000    -0.26254    
O97      O      0.872306700000     0.742176115000     0.004525855000    -0.205905   
O98      O      0.882059065000     0.680431770000     0.030796170000    -0.251845   
O99      O      0.876323550000     0.807653725000     0.091519060000    -0.53209    
O100     O      0.559906970000     0.687998550000     0.076564575000    -0.510893   
O101     O      0.525721985000     0.753275800000     0.090471550000    -0.364957   
O102     O      0.910508500000     0.742376430000     0.077612085000    -0.388519   
O103     O      0.565038465000     0.752709480000     0.164078050000    -0.19048    
F104     F      0.633323610000     0.883770250000     0.053289375000    -0.396391   
F105     F      0.804266950000     0.612588165000     0.115685650000    -0.395755   
Zn0      Zn     0.933768950000     0.782607615000     0.605691230000     1.11326    
Zn1      Zn     0.502239110000     0.712436690000     0.564021245000     1.1319     
H2       H      0.979861915000     0.678913770000     0.913947880000     0.076642   
H3       H      0.957804050000     0.818586470000     0.754881235000     0.075567   
H4       H      0.974894500000     0.803738150000     0.918721950000     0.075311   
H5       H      0.962773900000     0.693763735000     0.750106900000     0.074494   
H6       H      0.926468450000     0.706923650000     0.870944025000     0.056517   
H7       H      0.511197510000     0.790576520000     0.797885050000     0.05104    
H8       H      0.517900170000     0.784753235000     0.862141220000     0.050473   
H9       H      0.919765830000     0.712746950000     0.806687900000     0.053515   
H10      H      0.994725850000     0.655330690000     0.510160985000     0.044751   
H11      H      0.942940000000     0.842169550000     0.658668150000    -0.196744   
H12      H      0.980337650000     0.809685450000     0.517090080000    -0.014587   
H13      H      0.957325900000     0.687813075000     0.651739270000     0.006023   
H14      H      0.503328620000     0.512893080000     0.558615160000     0.018451   
H15      H      0.934262100000     0.983465300000     0.610359860000     0.044903   
H16      H      0.951469650000     0.926656150000     0.575383080000    -0.002526   
H17      H      0.986119630000     0.569707750000     0.593596725000     0.059606   
H18      H      0.945058700000     0.640879750000     0.600346930000     0.019775   
H19      H      0.992531900000     0.855478735000     0.568628075000    -0.128955   
H20      H      0.635636350000     0.694705900000     0.539476385000     0.052452   
H21      H      0.526563720000     0.823352130000     0.656862735000     0.178152   
H22      H      0.908982935000     0.671162750000     0.511669130000     0.195529   
H23      H      0.800477150000     0.801195400000     0.628422250000     0.054821   
H24      H      0.725410610000     0.809577000000     0.657750725000     0.099763   
H25      H      0.710624320000     0.686525180000     0.510044415000     0.071194   
C26      C      0.983491850000     0.701879440000     0.966552650000     0.06042    
C27      C      0.954174130000     0.795620770000     0.702276515000     0.011763   
C28      C      0.982001750000     0.771443935000     0.969051270000     0.056837   
C29      C      0.955664215000     0.726056280000     0.699777885000     0.050892   
C30      C      0.979744700000     0.705193535000     0.929327935000    -0.065478   
C31      C      0.957921775000     0.792306200000     0.739506065000    -0.048      
C32      C      0.977984400000     0.774871825000     0.931864025000    -0.064816   
C33      C      0.959681570000     0.722628370000     0.736965100000    -0.063505   
C34      C      0.976880600000     0.741758240000     0.911564975000     0.053753   
C35      C      0.960785800000     0.755741550000     0.757269050000     0.045519   
C36      C      0.945519550000     0.724999190000     0.855316950000    -0.025381   
C37      C      0.992146880000     0.772500635000     0.813517050000     0.016644   
C38      C      0.996003925000     0.769149570000     0.850493300000     0.013634   
C39      C      0.941662050000     0.728350625000     0.818335770000    -0.026175   
C40      C      0.964912685000     0.752156080000     0.796831965000    -0.005465   
C41      C      0.972753800000     0.745343670000     0.872002000000    -0.006544   
C42      C      0.986354680000     0.661784990000     0.983184900000     0.111776   
C43      C      0.951303700000     0.835718335000     0.685645280000     0.143371   
C44      C      0.982894050000     0.808272480000     0.988491650000     0.103177   
C45      C      0.954771965000     0.689227775000     0.680337460000     0.073362   
C46      C      0.586028455000     0.821152420000     0.555767600000     0.283191   
C47      C      0.851562085000     0.675206125000     0.613207445000     0.291286   
C48      C      0.876176500000     0.631570700000     0.608257955000    -0.137929   
C49      C      0.561414065000     0.864787800000     0.560717070000    -0.137687   
C50      C      0.924897880000     0.619072555000     0.601686590000     0.06327    
C51      C      0.512692570000     0.877285950000     0.567288340000     0.035902   
C52      C      0.948492675000     0.578159630000     0.597466835000    -0.072497   
C53      C      0.989097925000     0.918198885000     0.571508215000    -0.024046   
C54      C      0.923987900000     0.548591850000     0.599224480000     0.032625   
C55      C      0.513602735000     0.947766570000     0.569750495000     0.016764   
C56      C      0.875124215000     0.560832380000     0.605867565000     0.045871   
C57      C      0.562466325000     0.935526135000     0.563107410000     0.050971   
C58      C      0.851479900000     0.601910295000     0.610214060000     0.328368   
C59      C      0.586110650000     0.894448200000     0.558760905000     0.321937   
C60      C      0.949048280000     0.504979850000     0.595290780000     0.022284   
C61      C      0.988542200000     0.991378650000     0.573684180000     0.025308   
C62      C      0.716908815000     0.791743050000     0.637283565000    -0.107026   
C63      C      0.873813270000     0.772135100000     0.583418705000     0.244203   
C64      C      0.562409090000     0.723525950000     0.584647490000     0.268311   
C65      C      0.642854365000     0.713052950000     0.560100480000    -0.023101   
C66      C      0.793294130000     0.782783350000     0.607837625000    -0.050458   
C67      C      0.607981935000     0.730538160000     0.586556555000    -0.013795   
C68      C      0.828228200000     0.765152650000     0.581472235000     0.007614   
C69      C      0.616223415000     0.755188150000     0.613424315000    -0.004967   
C70      C      0.820003850000     0.740420850000     0.554655690000    -0.052988   
C71      C      0.661015270000     0.761949250000     0.613413245000    -0.01284    
C72      C      0.719179275000     0.704232800000     0.530586885000    -0.053815   
C73      C      0.775134200000     0.733847870000     0.554570410000     0.049825   
C74      C      0.695753100000     0.744595810000     0.585065910000     0.034502   
C75      C      0.740392670000     0.751221200000     0.582902395000    -0.014299   
C76      C      0.686061665000     0.720392435000     0.558758935000     0.045466   
C77      C      0.750071750000     0.775463500000     0.609178655000     0.088258   
C78      C      0.673209770000     0.784897985000     0.640216600000     0.186915   
C79      C      0.762860950000     0.711101175000     0.527658945000     0.064051   
C80      C      0.577217175000     0.773602900000     0.640340000000     0.30522    
C81      C      0.859144450000     0.721517950000     0.528012940000     0.354381   
N82      N      0.984673250000     0.734987960000     0.986270450000    -0.115001   
N83      N      0.952992700000     0.762512265000     0.682558640000    -0.177173   
Cl84     Cl     0.842130350000     0.525421800000     0.607680125000    -0.204507   
Cl85     Cl     0.595455050000     0.970941335000     0.561291400000    -0.205665   
Cl86     Cl     0.638157600000     0.804787450000     0.679671390000    -0.290491   
Cl87     Cl     0.797688850000     0.691773040000     0.987953125000    -0.261202   
O88      O      0.979408325000     0.634407370000     0.966322900000    -0.173386   
O89      O      0.958242450000     0.863099100000     0.702508285000    -0.169502   
O90      O      0.986369150000     0.838655175000     0.972247500000    -0.174898   
O91      O      0.951304350000     0.658841950000     0.696580530000    -0.165632   
O92      O      0.808152150000     0.683732090000     0.628262150000    -0.155603   
O93      O      0.629438400000     0.812626450000     0.540712905000    -0.157225   
O94      O      0.562211930000     0.794792770000     0.566425025000    -0.200027   
O95      O      0.875378650000     0.701565685000     0.602549935000    -0.208487   
O96      O      0.553303275000     0.814448150000     0.637527035000    -0.26254    
O97      O      0.872306700000     0.742176115000     0.504525855000    -0.205905   
O98      O      0.882059065000     0.680431770000     0.530796170000    -0.251845   
O99      O      0.876323550000     0.807653725000     0.591519060000    -0.53209    
O100     O      0.559906970000     0.687998550000     0.576564575000    -0.510893   
O101     O      0.525721985000     0.753275800000     0.590471550000    -0.364957   
O102     O      0.910508500000     0.742376430000     0.577612085000    -0.388519   
O103     O      0.565038465000     0.752709480000     0.664078050000    -0.19048    
F104     F      0.633323610000     0.883770250000     0.553289375000    -0.396391   
F105     F      0.804266950000     0.612588165000     0.615685650000    -0.395755   


