# generated using pymatgen
data_Zn4H44C68N2O17
_symmetry_space_group_name_H-M   'P 1'
_cell_length_a   10.75727000
_cell_length_b   12.64618000
_cell_length_c   23.21502000
_cell_angle_alpha   85.97665000
_cell_angle_beta   83.10043000
_cell_angle_gamma   80.51764000
_symmetry_Int_Tables_number   1
_chemical_formula_structural   Zn4H44C68N2O17
_chemical_formula_sum   'Zn4 H44 C68 N2 O17'
_cell_volume   3088.32949068
_cell_formula_units_Z   1
loop_
 _symmetry_equiv_pos_site_id
 _symmetry_equiv_pos_as_xyz
  1  'x, y, z'
loop_
 _atom_site_type_symbol
 _atom_site_label
 _atom_site_symmetry_multiplicity
 _atom_site_fract_x
 _atom_site_fract_y
 _atom_site_fract_z
 _atom_site_occupancy
  Zn  Zn0  1  0.32752925  0.01791712  0.65180650  1
  Zn  Zn1  1  0.11607672  0.10813367  0.56914880  1
  Zn  Zn2  1  0.09822968  0.19751340  0.69520480  1
  Zn  Zn3  1  0.31057754  0.25707865  0.59695450  1
  H  H4  1  0.67306420  0.79575620  0.73625016  1
  H  H5  1  0.89556146  0.81637490  0.73882510  1
  H  H6  1  0.41080028  0.33054960  0.67056980  1
  H  H7  1  0.85370490  0.37159318  0.67569550  1
  H  H8  1  0.46771032  0.50453240  0.67569320  1
  H  H9  1  0.69041890  0.52517060  0.67827064  1
  H  H10  1  0.96479577  0.98412985  0.71031976  1
  H  H11  1  0.52308846  0.94319720  0.70520794  1
  H  H12  1  0.37133458  0.31663176  0.73491055  1
  H  H13  1  0.23493177  0.65542490  0.47526482  1
  H  H14  1  0.13956094  0.84078070  0.44566795  1
  H  H15  1  0.05665179  0.97638670  0.52239780  1
  H  H16  1  0.06690060  0.92213434  0.62769800  1
  H  H17  1  0.19919488  0.63942900  0.78184340  1
  H  H18  1  0.28881443  0.45232952  0.81162950  1
  H  H19  1  0.35523406  0.36931148  0.62977050  1
  H  H20  1  0.42681736  0.94182240  0.33406135  1
  H  H21  1  0.39403540  0.25508544  0.89064690  1
  H  H22  1  0.41945958  0.91608530  0.43976146  1
  H  H23  1  0.35778427  0.29115220  0.78860784  1
  H  H24  1  0.11586611  0.18496624  0.45835220  1
  H  H25  1  0.99705290  0.17962933  0.82578707  1
  H  H26  1  0.11248118  0.20100250  0.35334274  1
  H  H27  1  0.02632276  0.15744660  0.92862240  1
  H  H28  1  0.08473453  0.43862528  0.05321954  1
  H  H29  1  0.07130597  0.47100493  0.12824550  1
  H  H30  1  0.10436837  0.57045930  0.07138916  1
  H  H31  1  0.29176920  0.49831680  0.11888492  1
  H  H32  1  0.32115656  0.46981460  0.04559109  1
  H  H33  1  0.03576467  0.92415970  0.23028232  1
  H  H34  1  0.98733090  0.90643320  0.16044968  1
  H  H35  1  0.00707528  0.79448560  0.21287401  1
  H  H36  1  0.18050352  0.78115890  0.13508672  1
  H  H37  1  0.24149323  0.78826874  0.20079452  1
  H  H38  1  0.59131736  0.29890135  0.12310176  1
  H  H39  1  0.51390773  0.43145102  0.10201018  1
  H  H40  1  0.61014570  0.41405720  0.16089676  1
  H  H41  1  0.37683687  0.43833375  0.19895087  1
  H  H42  1  0.47076198  0.31536195  0.22056559  1
  H  H43  1  0.50850170  0.83194320  0.07818852  1
  H  H44  1  0.40630760  0.74192345  0.11434645  1
  H  H45  1  0.47721854  0.71973747  0.04143912  1
  H  H46  1  0.24672910  0.80530530  0.04231970  1
  H  H47  1  0.36069542  0.87904920  0.00325372  1
  C  C48  1  0.51058954  0.33500260  0.66377825  1
  C  C49  1  0.76182646  0.35828444  0.66666667  1
  C  C50  1  0.45131642  0.12289432  0.63238907  1
  C  C51  1  0.96715033  0.17069623  0.63835870  1
  C  C52  1  0.54183610  0.43587857  0.66944940  1
  C  C53  1  0.66710240  0.44748690  0.67089903  1
  C  C54  1  0.73431810  0.25510670  0.65748320  1
  C  C55  1  0.60543585  0.24316329  0.65599160  1
  C  C56  1  0.82967200  0.16228864  0.65524614  1
  C  C57  1  0.57458440  0.13864990  0.65229400  1
  C  C58  1  0.79003630  0.06215764  0.67441154  1
  C  C59  1  0.66117770  0.05021639  0.67292020  1
  C  C60  1  0.87190820  0.97660140  0.69999690  1
  C  C61  1  0.62109400  0.95335865  0.69709426  1
  C  C62  1  0.83124060  0.88026464  0.71949480  1
  C  C63  1  0.70611530  0.86866940  0.71804680  1
  C  C64  1  0.32218623  0.43055925  0.66206320  1
  C  C65  1  0.30964744  0.49083546  0.53928950  1
  C  C66  1  0.20680536  0.67718680  0.56844990  1
  C  C67  1  0.16672258  0.72414110  0.67239475  1
  C  C68  1  0.22096303  0.61581530  0.68886690  1
  C  C69  1  0.19856213  0.71014726  0.50879340  1
  C  C70  1  0.11921108  0.80248374  0.71795960  1
  C  C71  1  0.26878010  0.53809726  0.64508880  1
  C  C72  1  0.14500435  0.81697760  0.49200374  1
  C  C73  1  0.26135287  0.56891040  0.58490490  1
  C  C74  1  0.09849028  0.89346564  0.53530496  1
  C  C75  1  0.22975627  0.58309130  0.74853470  1
  C  C76  1  0.10583451  0.86237514  0.59521000  1
  C  C77  1  0.15981717  0.75508060  0.61219454  1
  C  C78  1  0.28316268  0.47612560  0.76530510  1
  C  C79  1  0.32975200  0.39961270  0.72198960  1
  C  C80  1  0.35632178  0.99307840  0.36119136  1
  C  C81  1  0.30558660  0.24147853  0.87686030  1
  C  C82  1  0.35295033  0.97948990  0.42139268  1
  C  C83  1  0.28535062  0.26066133  0.81863075  1
  C  C84  1  0.26555312  0.04747689  0.45755000  1
  C  C85  1  0.17343818  0.23988216  0.79921570  1
  C  C86  1  0.17972374  0.12787521  0.43230343  1
  C  C87  1  0.08093739  0.20172477  0.83943295  1
  C  C88  1  0.18002191  0.13898756  0.37208182  1
  C  C89  1  0.09914981  0.18622783  0.89810070  1
  C  C90  1  0.26961760  0.07275313  0.33603948  1
  C  C91  1  0.21247055  0.20441277  0.91710930  1
  C  C92  1  0.27069035  0.03607816  0.52080375  1
  C  C93  1  0.15910570  0.25345907  0.73673380  1
  C  C94  1  0.23381019  0.08113437  0.00123949  1
  C  C95  1  0.29631302  0.18465352  0.24787684  1
  C  C96  1  0.25694188  0.26385972  0.00852251  1
  C  C97  1  0.25921410  0.00522137  0.24176510  1
  C  C98  1  0.27372190  0.24618626  0.06834640  1
  C  C99  1  0.25847453  0.01909535  0.18059471  1
  C  C100  1  0.27282667  0.14053470  0.09348267  1
  C  C101  1  0.28072923  0.11970513  0.15365621  1
  C  C102  1  0.26085237  0.05603350  0.05896837  1
  C  C103  1  0.30776492  0.20062122  0.18691508  1
  C  C104  1  0.29566660  0.32825170  0.10355803  1
  C  C105  1  0.24088722  0.93599784  0.14501715  1
  C  C106  1  0.33816200  0.29748180  0.15858397  1
  C  C107  1  0.26890054  0.95006640  0.08407207  1
  C  C108  1  0.26535484  0.44797230  0.08666330  1
  C  C109  1  0.12289286  0.48367086  0.08452959  1
  C  C110  1  0.18339787  0.83707464  0.16928278  1
  C  C111  1  0.04533513  0.86782370  0.19496654  1
  C  C112  1  0.42798278  0.36037440  0.18323806  1
  C  C113  1  0.54219390  0.37720838  0.13938056  1
  C  C114  1  0.32184687  0.85335666  0.04743267  1
  C  C115  1  0.43491125  0.78270580  0.07220142  1
  N  N116  1  0.23450540  0.18271291  0.97715590  1
  N  N117  1  0.27471990  0.08800990  0.27371356  1
  O  O118  1  0.42173260  0.02899021  0.63327660  1
  O  O119  1  0.05193794  0.08739079  0.64056987  1
  O  O120  1  0.37224874  0.20296745  0.61571330  1
  O  O121  1  0.00240707  0.26136371  0.62300600  1
  O  O122  1  0.41855693  0.42937416  0.54397357  1
  O  O123  1  0.24077827  0.48470990  0.49931150  1
  O  O124  1  0.05003336  0.77249706  0.76354694  1
  O  O125  1  0.14706070  0.89958720  0.70768530  1
  O  O126  1  0.38041398  0.00408436  0.53899723  1
  O  O127  1  0.04831840  0.28570473  0.71862954  1
  O  O128  1  0.26094213  0.23534074  0.70077980  1
  O  O129  1  0.16779023  0.05444835  0.55684700  1
  O  O130  1  0.20135003  0.00593736  0.96995664  1
  O  O131  1  0.30096170  0.26642310  0.28149322  1
  O  O132  1  0.26342470  0.36059856  0.98123544  1
  O  O133  1  0.24542329  0.91021365  0.26966560  1
  O  O134  1  0.21310332  0.14516075  0.62827870  1
