# generated using pymatgen
data_ZnH23C32NO8
_symmetry_space_group_name_H-M   'P 1'
_cell_length_a   12.30174000
_cell_length_b   12.95247000
_cell_length_c   15.30405000
_cell_angle_alpha   89.30569000
_cell_angle_beta   102.20770000
_cell_angle_gamma   95.73426000
_symmetry_Int_Tables_number   1
_chemical_formula_structural   ZnH23C32NO8
_chemical_formula_sum   'Zn2 H46 C64 N2 O16'
_cell_volume   2371.34632689
_cell_formula_units_Z   2
loop_
 _symmetry_equiv_pos_site_id
 _symmetry_equiv_pos_as_xyz
  1  'x, y, z'
loop_
 _atom_site_type_symbol
 _atom_site_label
 _atom_site_symmetry_multiplicity
 _atom_site_fract_x
 _atom_site_fract_y
 _atom_site_fract_z
 _atom_site_occupancy
  Zn  Zn0  1  0.44898070  0.61408940  0.67067000  1
  Zn  Zn1  1  0.69319260  0.70824313  0.72205216  1
  H  H2  1  0.42998803  0.98473567  0.63268930  1
  H  H3  1  0.69939880  0.33864862  0.76539670  1
  H  H4  1  0.76300836  0.98594403  0.79542940  1
  H  H5  1  0.37245676  0.33745825  0.59256060  1
  H  H6  1  0.35206303  0.14813724  0.59091800  1
  H  H7  1  0.77970760  0.17531988  0.80374450  1
  H  H8  1  0.94195485  0.77493470  0.47355905  1
  H  H9  1  0.80917620  0.71241750  0.48543820  1
  H  H10  1  0.82360446  0.84904180  0.46043718  1
  H  H11  1  0.82084495  0.84002350  0.61804350  1
  H  H12  1  0.95528823  0.88239205  0.61183790  1
  H  H13  1  0.19801130  0.40561750  0.79674715  1
  H  H14  1  0.33907416  0.44449016  0.78781074  1
  H  H15  1  0.30751950  0.42374873  0.89599400  1
  H  H16  1  0.32970157  0.61661260  0.86946297  1
  H  H17  1  0.19925520  0.57253480  0.88054840  1
  H  H18  1  0.85422110  0.60667550  0.91340905  1
  H  H19  1  0.80225430  0.47407943  0.92959780  1
  H  H20  1  0.94748384  0.50579095  0.92701304  1
  H  H21  1  0.74342144  0.50708246  0.77189183  1
  H  H22  1  0.84844047  0.42420352  0.78357506  1
  H  H23  1  0.29281563  0.70738520  0.47479776  1
  H  H24  1  0.19969986  0.80813400  0.45502627  1
  H  H25  1  0.34606475  0.83903320  0.45618197  1
  H  H26  1  0.28942928  0.89469600  0.59689570  1
  H  H27  1  0.39812827  0.81655180  0.61661110  1
  H  H28  1  0.09863277  0.82216100  0.57776500  1
  H  H29  1  0.04312959  0.49424020  0.80073570  1
  H  H30  1  0.30105550  0.49417424  0.15944724  1
  H  H31  1  0.88893160  0.64284630  0.24470365  1
  H  H32  1  0.51856697  0.65656790  0.38655230  1
  H  H33  1  0.61520760  0.70762897  0.00053076  1
  H  H34  1  0.93651396  0.84031780  0.55517070  1
  H  H35  1  0.08392405  0.84597890  0.69306177  1
  H  H36  1  0.10831296  0.69031980  0.78806470  1
  H  H37  1  0.98474276  0.52787970  0.74472640  1
  H  H38  1  0.83684206  0.52061830  0.60710300  1
  H  H39  1  0.31509820  0.77883600  0.82220890  1
  H  H40  1  0.17122465  0.79907810  0.68557230  1
  H  H41  1  0.04058951  0.64819370  0.62033355  1
  H  H42  1  0.05365883  0.47655500  0.69268410  1
  H  H43  1  0.20050396  0.45307390  0.82677030  1
  H  H44  1  0.08898753  0.42318240  0.01483355  1
  H  H45  1  0.09649706  0.74639380  0.38018557  1
  H  H46  1  0.31177800  0.43237486  0.38290575  1
  H  H47  1  0.83991150  0.76575280  0.01719931  1
  C  C48  1  0.55050460  0.46530890  0.67979880  1
  C  C49  1  0.58359550  0.85804880  0.70971537  1
  C  C50  1  0.59474520  0.97171146  0.71385670  1
  C  C51  1  0.53784210  0.35162768  0.67882530  1
  C  C52  1  0.42884055  0.18888775  0.62792360  1
  C  C53  1  0.70317775  0.13448873  0.76625526  1
  C  C54  1  0.44032022  0.29689732  0.62943640  1
  C  C55  1  0.69353455  0.02649414  0.76136820  1
  C  C56  1  0.62401080  0.29706645  0.72673370  1
  C  C57  1  0.50609890  0.02621644  0.67027940  1
  C  C58  1  0.61466247  0.18889718  0.72290146  1
  C  C59  1  0.51588190  0.13436177  0.67369380  1
  C  C60  1  0.93543565  0.72219360  0.65504473  1
  C  C61  1  0.09173897  0.62403740  0.72299194  1
  C  C62  1  0.04988318  0.70179075  0.66508180  1
  C  C63  1  0.89364535  0.81283575  0.59855520  1
  C  C64  1  0.86559200  0.78546060  0.49866587  1
  C  C65  1  0.25618032  0.56707436  0.83371620  1
  C  C66  1  0.27629860  0.45336744  0.82783794  1
  C  C67  1  0.83306694  0.50515410  0.79679480  1
  C  C68  1  0.86116620  0.52440570  0.89784450  1
  C  C69  1  0.30867052  0.81391690  0.58769210  1
  C  C70  1  0.28533900  0.79033730  0.48737180  1
  C  C71  1  0.12494792  0.75979090  0.62204444  1
  C  C72  1  0.01623719  0.56059057  0.76149094  1
  C  C73  1  0.23724864  0.74019820  0.63490665  1
  C  C74  1  0.90420360  0.57943565  0.74981815  1
  C  C75  1  0.20886388  0.61299830  0.74347200  1
  C  C76  1  0.51750964  0.64949090  0.83778710  1
  C  C77  1  0.57211334  0.58786917  0.23985927  1
  C  C78  1  0.46319464  0.53779656  0.23846701  1
  C  C79  1  0.72494970  0.62677910  0.16240332  1
  C  C80  1  0.38383480  0.53034115  0.15834475  1
  C  C81  1  0.80037220  0.63287130  0.24446240  1
  C  C82  1  0.62521960  0.68270665  0.55279380  1
  C  C83  1  0.54297376  0.65411330  0.00014235  1
  C  C84  1  0.60723450  0.65108360  0.39366338  1
  C  C85  1  0.46956310  0.63636905  0.91863316  1
  C  C86  1  0.67857210  0.67300904  0.47618670  1
  C  C87  1  0.32598680  0.56865084  0.99817955  1
  C  C88  1  0.83843380  0.65933126  0.40668377  1
  C  C89  1  0.35618904  0.60273516  0.91724676  1
  C  C90  1  0.79580790  0.67226970  0.48428455  1
  C  C91  1  0.52167550  0.60875773  0.07854362  1
  C  C92  1  0.64716100  0.62191635  0.32012254  1
  C  C93  1  0.87508290  0.68049530  0.57213056  1
  C  C94  1  0.94517730  0.77234300  0.59702280  1
  C  C95  1  0.02896810  0.77561210  0.67475444  1
  C  C96  1  0.04291856  0.68769200  0.72818655  1
  C  C97  1  0.97284760  0.59630305  0.70406187  1
  C  C98  1  0.88902370  0.59253660  0.62631450  1
  C  C99  1  0.26875110  0.61421394  0.83474195  1
  C  C100  1  0.25906727  0.71199024  0.79415274  1
  C  C101  1  0.17757154  0.72387310  0.71679770  1
  C  C102  1  0.40995854  0.56789390  0.07820180  1
  C  C103  1  0.10384534  0.63889587  0.68010163  1
  C  C104  1  0.11162336  0.54194826  0.72068800  1
  C  C105  1  0.19442290  0.52911633  0.79702820  1
  C  C106  1  0.20677742  0.53771013  0.99928370  1
  C  C107  1  0.96129280  0.66743600  0.41299212  1
  C  C108  1  0.43268713  0.48121620  0.31660694  1
  C  C109  1  0.77756155  0.64875627  0.08607909  1
  C  C110  1  0.76310045  0.63738530  0.32393202  1
  C  C111  1  0.60676840  0.60819300  0.15829504  1
  N  N112  1  0.86446980  0.66160995  0.69873494  1
  N  N113  1  0.27893007  0.66410370  0.69308720  1
  O  O114  1  0.64584250  0.51409820  0.71650670  1
  O  O115  1  0.48880973  0.80924726  0.67170300  1
  O  O116  1  0.46643096  0.51468180  0.64336800  1
  O  O117  1  0.66822130  0.80866367  0.74484175  1
  O  O118  1  0.45405608  0.61776880  0.76067704  1
  O  O119  1  0.13899244  0.60197880  0.98359925  1
  O  O120  1  0.17212927  0.43477166  0.01647894  1
  O  O121  1  0.01710856  0.60361540  0.45587748  1
  O  O122  1  0.01272786  0.74896450  0.37085626  1
  O  O123  1  0.50341960  0.43959054  0.36993486  1
  O  O124  1  0.32215542  0.47298497  0.32769814  1
  O  O125  1  0.77447265  0.58250475  0.02915692  1
  O  O126  1  0.68870485  0.71521866  0.62943030  1
  O  O127  1  0.82663590  0.74957500  0.07872409  1
  O  O128  1  0.62451180  0.68499640  0.84772020  1
  O  O129  1  0.51824920  0.64799110  0.54238710  1
